# File generated by Flopy version 3.8.0 on 08/20/2024 at 11:25:50.
BEGIN options
  SAVE_FLOWS
  SAVE_SPECIFIC_DISCHARGE
  K33OVERK
END options

BEGIN griddata
  icelltype  LAYERED
    CONSTANT  0
    CONSTANT  0
    CONSTANT  0
    CONSTANT  0
    CONSTANT  0
    CONSTANT  0
  k  LAYERED
    INTERNAL  FACTOR  1.0
          19.81200000      19.50720000      27.12834300      27.27863378      27.55307266      28.05121339      28.94770944      61.34785800      53.86974240      51.91990632      53.45829288      55.75663728      57.38268432      55.63688136      56.21380680      56.61461880      52.06883160      52.17468864      58.04379552      58.15702872      64.32203544      64.42511880      77.80394904      59.60175024      47.54078376      47.53139592      43.05821208      43.04650776      38.47853112      33.80609952      33.80183232      39.03122496      38.63568600      44.63085816      39.52280640      39.19679232      39.19895640      39.20081568      39.20237016      39.20361984      39.20450376      33.42308784      33.42317928      19.50411847      19.50383501      19.50360336      19.50339305      19.50324370      19.50312787      19.50303643       7.01024760       7.01021407       7.01019274       7.01018359       7.01017445       3.88665415       3.88665110       3.88665110       3.52370441       3.52370441       3.52370441       6.63557525       6.63557525       3.10646064       5.17541866
           5.17541866       5.17541866      27.16044758      27.34159327      27.67707444      28.29840314      29.45308918      59.61699024      53.76470832      44.80255200      50.51422968      53.83962816      55.83698256      54.67584696      55.49841072      56.09417280      51.83892096      51.99409464      57.82229736      63.93707304      64.16277744      77.47436880      77.70193248      70.04151600      47.57952384      43.10109744      43.07360448      38.49495984      38.47648896      33.80250288      38.49502080      39.01927680      44.61351504      44.61613632      34.95510408      39.18941616      39.19353096      39.19712760      39.20005368      39.20237016      39.20395512      33.42363648      19.50578268      19.50519442      19.50464578      19.50418858      19.50382891      19.50354545      19.50332599       7.01036952       7.01029637       7.01024455       7.01021407       7.01019274       3.88666025       3.88665720       3.88665415       3.52370441       3.52370441       3.52370441       6.63556915       3.10646064       3.10646064       5.17541866       5.17541866
           5.17541866       5.17541866      27.18590448      27.38987664      27.76686242      28.46108710      29.73090828      31.99708104      53.99699640      50.31306168      50.02563528      52.13021832      53.74498776      53.24471952      54.45410496      55.33421496      51.48733416      51.70288872      63.07613496      63.51260856      76.62815256      77.17173288      69.86924304      70.04843496      53.04864168      43.15318776      43.09765320      38.50172640      38.46810696      38.48484048      38.99888568      38.99535000      44.58209016      34.93480440      34.94205864      39.17597448      39.18392976      39.19081824      39.19633512      39.20048040      33.42421560      19.50956220      19.50831252      19.50713599      19.50608748      19.50523709      19.50454519      19.50403618       7.01068956       7.01050668       7.01037562       7.01029637       7.01024455       3.88668463       3.88666939       3.88666025       3.52371050       3.52370746       3.52370441       6.63557220       3.10646369       3.10646064       5.17541866       5.17541866       5.17541866
           5.17541866       5.17541866      27.20355850      27.42231650      27.82243051      28.54818674      29.84979552      32.11653216      54.01598544      50.04733704      50.81131824      49.97747688      50.39008464      51.15424872      53.07104448      54.29067120      50.96006064      61.99275384      62.68373544      72.48750552      75.76194144      76.75982616      69.84882144      53.22731544      53.17181136      43.24267704      43.13176032      38.50358568      38.44363152      38.44640520      38.95106256      44.51445504      44.52192264      34.90411104      39.13513128      39.15183432      39.16710480      39.18015024      39.19045248      39.19795056      51.10950408      19.51545398      19.51294853      19.51063814      19.50864170      19.50703541      19.50578878       7.01149423       7.01102789       7.01070480       7.01050058       7.01036647       7.01028418       3.88670292       3.88667854       3.52371965       3.52371050       3.52370746       3.52370746       3.10646369       3.10646369       5.17541866       5.17541866       5.17541866       5.17541866
           5.17541866       2.97045156      27.21348278      27.44195172      27.85540073      28.59237665      29.89181525      32.18236896      36.32542392      44.50220208      49.61235696      49.61519160      44.74570680      49.16018616      51.62031840      52.93982808      55.64014272      67.17731040      68.55369576      43.27647936      74.48092800      69.14278272      48.81624984      53.58365712      32.44422264      43.38901152      38.64592728      38.48523672      38.38142184      38.36328624      44.38662192      44.38915176      44.40817128      34.84775352      39.07639632      39.10864416      39.13802688      39.16268520      39.18176568      39.19514640      19.53133711      19.52633230      19.52134882      19.51686216      19.51310093      19.51011998      19.50786446       7.01235072       7.01154910       7.01102179       7.01068042       7.01047010       3.88678217       3.88672426       3.52374403       3.52372574       3.52371660       3.52371050       3.10646674       3.10646369       5.17541866       5.17541866       5.17541866       5.17541866       5.17541866
           2.97045156       2.97045156      17.95924577      18.22031002      27.88014744      28.63243346      29.90995390      31.99964136      35.16453216      53.77821096      52.83095352      51.16894008      49.51652784      48.79159152      50.33089248      52.50600624      53.37081528      62.35811760      63.82774128      43.97764128      53.08710744      49.76600664      49.91322504      33.60776616      32.98698000      43.60965624      38.69478672      38.40891480      39.15713784      39.60952200      44.13449136      44.15207832      34.69337232      34.74509688      38.97035640      39.03247464      39.08871024      39.13522272      39.17006136      51.04930608      19.55654712      19.54628450      19.53642118      19.52780448      19.52078189      19.51532597       7.01568828       7.01368270       7.01234767       7.01148814       7.01094559       2.50319621       3.88684008       3.52380194       3.52375622       3.52373184       3.52371965       3.10646978       3.10646674       5.17541866       5.17541866       5.17541866       5.17541866       5.17541866       2.97045156
           2.97045065       2.97045187      17.94894962      18.20994377      18.68863522      19.54120349      30.07388753      32.14164768      34.78292256      37.20004752      57.85698360      53.28263664      49.50616464      50.88626856      50.01310800      49.40652552      55.65794304      56.23608768      43.96986888      45.37015056      50.89928352      52.18922760      52.19547600      35.13438744      33.87730080      29.89964556      38.67847992      38.18939784      38.81710296      39.21721392      43.65787560      43.71252624      34.46157192      34.55983944      38.78070984      38.89994760      39.00745056      39.09447096      39.15741216      19.62286246      19.60324553      19.58238806      19.56308508      19.54674780      19.53375113       7.02408857       7.01907461       7.01571571       7.01353030       7.01215565       2.50359093       3.88713269       3.52395130       3.52383852       3.52377451       2.75036890       3.10648198       3.10647283       5.17541866       5.17541866       5.17541866       5.17541866       2.97045156       2.97045156       2.97045156
           2.97045156       2.97045156      18.78656746      18.18005813      18.67380060      19.59670452      21.24546830      23.94954418      36.88000752      40.23783672      43.88501256      48.27270000      44.53182864      52.48588944      51.32530248      44.74564584      53.38181856      53.06071176      44.50329936      52.91712048      55.49393016      57.64901856      56.90472744      37.84226112      32.23077120      51.39543696      44.49641088      38.51757600      44.65889976      38.46548568      42.78331296      33.85492848      34.04692200      34.22949720      38.44570416      38.67399936      38.87897736      39.04042992      50.79248160      19.73033189      19.68867182      19.64671306      19.60946650      19.57891334       7.04513196       7.03266564       7.02423182       7.01870885       7.01521279       2.50457848       2.50387957       3.52432010       3.52403664       1.79353312       2.75041705       3.10650636       3.10648502       5.17542475       5.17541866       5.17541866       5.17541561       2.97045156       2.97045156       2.97045065       2.97045156
           2.24185094       2.24185094      18.71952670      18.93982394      18.58685030      19.59659479      21.66055104      25.70324146      32.16993312      39.39649728      42.78837264      59.22203040      58.10204280      56.44249824      54.97564824      53.98669416      54.56569224      53.34283464      50.40392256      53.04583752      65.80632000      70.17806640      49.58404104      48.33564120      34.06810560      50.87944104      48.40370304      42.85033848      42.80461848      37.08903936      32.72284032      33.00157992      33.32195520      34.68124128      37.86313992      38.29973544      38.68930032      21.20149176      20.00506337      19.92995455      19.84233370      19.75933361      19.68868097      19.63255510       7.06682153       7.04575070       7.03183658       7.02296690       2.50705468       2.50528806       3.52523755       1.79398666       1.79371935       2.75053196       2.75043382       3.10651246       5.17543085       5.17541866       5.17541561       5.17541561       2.97045096       2.97045096       2.97045065       2.97045096       2.24185094
           2.24185094       2.24185094      12.84178788      13.00643779      13.37967149      13.71793243      15.74149354      20.85280666      44.64356832      66.54478944      60.92942856      60.74081832      70.96755936      65.96134128      59.84327376      64.38348312      55.52864688      54.24004392      58.36468896      63.14163648      84.97824000     102.15966360      53.78519088      54.67609080      44.12184216      48.98608440      41.50562184      39.65597352      39.04728792      38.57966376      31.08972192      31.58742984      33.01880112      33.58935624      36.87220464      37.70787480      38.44466784      21.71121185      20.46664030      20.29410216      20.11313630      19.95253414      19.82127506       7.15231183       7.09996853       7.06502321       7.04257774       2.51323968       2.50878746       1.79601571       1.79483065       1.79416771       2.75080567       2.75056549       3.10657342       5.17543694       5.17541256       5.17540646       2.97045278       2.97045156       2.97045065       2.97045035       2.24185063       2.24185063       2.24185063
           2.24185063       2.24185094       8.04995698       8.13648055       8.34444254       8.85387002      10.78475669      14.81153350      38.12795016     155.69290680      53.73136320      53.17635288     138.08369640      54.75421104      57.51594288     107.29682376      48.36557256      49.12412832      67.36534152      64.56377232      92.43520248     210.31590144      75.58305432      58.97014368      33.33554928      46.09731192      45.75176016      34.14720120      33.76147680      27.66332491      28.58638428      29.41585786      30.90973752      31.75775208      35.24234760      36.85092960      22.64437229      22.73949732      21.33214123      20.94145774      20.57919989      20.27742350       7.36588519       7.23640920       7.14888588       7.09213822       2.52867688       2.51745506       1.79982998       1.79687616       1.79523786       2.75144118       2.75086328       2.75057433       5.17543085       5.17538513       2.29452190       2.97045096       2.97044821       2.97044760       2.97044821       2.24185002       2.24185063       2.24185063       2.24185094
           2.24185063       1.66408181       9.01827610       7.93217311       7.93501385       8.00082017       8.78979802       9.67566874      12.88467629      17.51349710      16.46821598      17.97909739      24.62281690      22.92341364      24.57933108      27.17357227      23.76126007      27.29136528      31.74251208      41.33167248      72.15707184     106.81743432      75.73743552      47.30861760      40.97021016      29.45875846      34.87777632      31.07743848      24.15411070      26.11066762      25.18547160      27.05547142      27.87674282      28.79449258      32.72890584      23.56352107      24.85547683      23.75088163      22.89904488      22.05223733      21.36430373       7.90171445       7.58113800       7.36157227       7.21770362       2.56724993       2.53887702       1.80913796       1.80179350       1.79776526       2.75289203       2.75151555       2.75084377       5.17536989       2.29459627       2.29453501       2.97043846       2.97043572       1.09627294       1.09627020       2.24184820       2.24184942       2.24184972       2.24185033       2.24185063
           1.66408181       1.66408181       8.88082044       5.54888400       5.44179252       5.23622930       4.83008635       3.80144122       3.49500749       2.07895210       3.02260955       4.17853673       4.73783558       5.93656217       7.03245228       7.04221807       7.86984761       9.55847923      11.09887138      19.96913354      45.74258568      94.55097168      73.81234920      45.86871192      30.56037576      25.49528861      23.28116350      15.13990673      17.35451647      20.96486333      21.22914931      23.92995468      24.50680697      18.53606453      25.09112381      26.68405128      29.99410918      27.84584830      25.51335715      23.88923035      15.97694849       8.46811819       7.90979165       7.53935906       2.66450308       2.59190917       1.83175534       1.81349904       1.80364242       2.75612047       2.75288532       2.75135553       2.75067552       2.29465662       2.29453806       1.09631317       1.09628970       1.09627843       1.09627325       2.24184271       2.24184637       2.24184789       2.24184942       2.24185002       1.66408181
           1.66408181       1.66408181       5.47114171       5.34834998       5.17643059       4.74014597       3.93640056       2.63343390       1.10437879       0.17771038       0.91985409       1.51385626       1.01505258       2.17856471       3.09564024       2.08192451       3.38798916       4.00587667       2.43868956      10.81969286      36.39150456     189.28491480      72.24366552      42.69239112      29.62814496      24.45416496      15.01112263       6.10587552      14.33487811      19.51930970      17.07361584      24.11749202      24.34132800      17.68285008      26.39438765      31.72651008      43.28449560      33.50934624      23.00729155      20.15270239      10.79560452       9.39370740       8.39252779       2.91696709       2.72462214       1.88664860       1.84105692       1.81703807       2.76303760       2.75557092       2.75218459       2.75076666       2.29467126       2.29446887       1.09634975       1.09630616       1.09628666       1.09627751       2.24182656       2.24183692       2.24184271       2.24184637       1.66408151       1.66408181       1.66408181
           1.66408212       1.66408212       3.13578240       3.07703830       2.96666077       4.47833496       3.63532522       2.44154310       1.25445896       0.83881570       0.96030532       1.15940129       1.26746203       1.70295875       2.27775181       2.33662667       2.77459928       3.61539130       3.96811500       7.33991014      20.01663053      34.15256568      36.30990960      38.49907464      36.06524664      26.77249510      23.61094490      15.61261190      19.89449717      25.32505781      26.32322904      32.93687088      29.69678897      31.27616808      28.10558057      36.64991400      36.33715872      32.36829696      28.35104515      25.64194922      13.91620178      10.88514257       3.62635495       3.06800098       2.02086545       1.90515606       1.84674205       2.77699318       2.76020174       2.75301426       2.75028264       2.29434817       1.09655823       1.09638755       1.09631897       1.09629245       1.09628178       2.24178084       2.24181071       2.24182869       2.24183905       1.66408029       1.66408181       1.66408181       1.66408212
           1.66408242       1.01659639       3.65894417       3.55506223       2.91329394       2.72273451       2.41719476       2.72662650       1.79752051       1.29054210       1.39452096       1.25488080       1.26331584       1.36617090       1.85958023       2.07224711       1.96874343       2.67310636       3.31451102       4.15831020       6.53740526       8.60468993      14.80616292      31.56045504      49.31886504      41.34188328      31.93032984      30.48128016      32.86149384      41.69087928      49.50235464      46.32393072      50.90400792      57.32349216      39.42057648      38.43284160      40.91348688      36.74650512      36.77789952      30.40672303      13.37261842       7.50083844       5.16858809       3.23134330       2.05216658       1.90991063       2.80223885       2.76594265       2.75171002       2.16953348       1.09724708       1.09657286       1.09634335       1.09628056       1.09627111       1.09627446       2.24165251       2.24174060       2.24179120       2.24181985       1.66407785       1.66408120       1.66408242       1.66408273       0.67689862
           1.01659700       1.01659670       4.52924570       3.48504053       3.30732384       3.09346702       2.39227157       2.07210050       1.96547049       1.43570706       1.83341894       1.75777246       1.02724580       1.55079375       1.92232910       2.01777539       2.12032901       2.16024409       3.07868726       3.12050278       3.25137170       2.14288878       7.99994844      28.07305841     139.60096032      52.46589456      37.48210944      44.77435800      40.72353552      62.50530552     132.59120040      59.62860312      60.83210592     131.67786720      38.92085688      31.84766808      56.69651856      33.34533336      40.02865248      86.56320000      19.77994723       7.10992025       4.27029372       2.46992577       2.03477287       2.83773281       2.76428484       2.73949790       2.16215488       1.09665668       1.09593583       1.09588828       1.09601112       1.09613426       1.09621686       2.24130413       2.24155315       2.24169427       2.24177017       1.66407236       1.66408029       0.67690655       0.67690319       0.67690106       1.01659853
           1.01659761       1.01659700       4.44483439       2.08165720       2.59849590       2.46402149       2.47661308       2.76966792       3.24692772       3.69692834       4.11630876       3.83278380       3.76046695       2.99854650       2.11499684       1.74791126       1.71579906       1.69584685       1.92826965       2.27893626       2.70117570       2.94711455       5.67455304      15.23054510      25.93693162      26.61804379      32.29310280      34.91124336      37.79504760      42.50856624      48.63187632      37.48591944      24.25695022      19.59567125      13.92633029      10.75370976      11.35430292      14.54928053      19.26907805      24.42902810      14.19046082       6.67335826       4.00619671       2.33023867       1.33889161       1.24243948       1.20722441       2.13383317       1.09194478       1.09270160       1.09393269       1.09493944       1.09560330       1.09598704       2.24038089       2.24106791       2.24144647       1.66401079       1.66405987       0.67693337       0.67692179       0.67691356       0.67690746       1.01660249       1.01660005
           1.01659853       1.18126429       2.13963443       3.40465562       3.03617772       2.59627207       2.22984182       3.25141742       5.97459511      11.12352360      12.17813160      14.39931283      15.20779483       7.99257838       2.78499966       1.27144638       1.44008978       1.50115067       1.42101235       1.67391649       2.29681187       2.46603439       3.43672363       5.77761506       7.52311018      11.35281854      21.05346564      27.77749994      25.47816799      24.81963540      22.81351800      13.95715471       6.06067368       3.34986782       2.85687242       1.93351983       1.63001767       3.14845903       9.81413328      18.55848866      11.33065349       5.29556167       2.36145751       1.37269576       1.20953936       1.16503643       0.75289989       1.07268721       1.08092809       1.08726214       1.09141687       1.09388758       1.09524302       2.23800223       2.23984139       2.24083474       0.67707571       0.67703304       0.67699341       0.67696232       0.67693977       0.67692422       1.01661255       1.01660645       1.18126916
           1.18126642       1.18126520       3.45987624       2.05749510       1.93181722       2.57875248       1.46619041       3.98184624      10.67242265      44.79438336      24.70859066      33.56164992     112.78368096      16.00612394       3.24949414       0.44503787       1.28839935       1.43013379       0.90836496       1.57399025       1.97093708       1.76491087       2.66013408       3.20498724       2.20699523       6.64585920      12.54688474      27.25210094      15.90142210      13.97303174      19.93606579       6.94508746       2.26087747       0.56086400       0.97811753       0.46847059       0.08351971       1.06784455       4.92358680      42.97673904       6.37724810       2.53515205       1.25462873       0.64316397       0.60217599       0.69705322       0.71846511       1.04464805       1.06734894       1.08111493       1.08893305       1.09310729       2.23205162       1.39793899       1.06685639       0.67737838       0.67725920       0.67715191       0.67706809       0.67700804       0.67696720       1.01663937       0.82622227       1.18127922       1.18127282
           1.18126886       1.71311011       4.52837093       4.06661722       3.53151034       2.73951527       2.50785051       4.41915499       8.95051296      17.78713740      22.27868544      31.91417544      39.80209464      19.14462211       6.57162516       3.07082647       3.11916775       2.61572746       2.42564229       2.55977197       2.50661698       2.42436884       2.94088139       3.26732494       3.93012168       5.62250539       8.45310374      10.62684286       8.66919475       5.72926159       4.27031506       2.76344543       1.31121424       0.75045875       0.76707340       0.60491705       0.48076409       0.85624050       1.61325489       2.47049331       1.35953327       0.72026556       0.43180010       0.41771468       0.53664825       0.61895827       0.94830412       1.01466426       1.05396701       0.65346621       0.76517906       1.39068658       0.60270299       0.60257741       0.67818823       0.67785905       0.67756766       0.67734363       0.67718483       0.67707784       0.82631036       0.82626525       1.18130513       1.71313328       1.71312230
           1.71311621       2.07712391       4.81039627       4.31281942       3.47029126       2.63282064       2.43022496       4.03064472       6.91086146      11.05879322      16.41481807      24.95240018      30.06075674      23.63385367      15.96090077      13.16147736      10.09559170       6.76256102       6.45700817       6.01564253       4.54155353       3.77453042       4.15108339       4.76187211       4.79344634       5.44782451       6.23442187       5.87473654       3.74812255       1.71761170       0.85198306       0.83774036       0.69101818       0.64227456       0.84548289       1.09918713       1.41841758       0.85469334       0.48455915       0.22973648       0.23743198       0.21098972       0.20032657       0.29489866       0.40803454       0.35269597       0.47418864       0.62043838       0.64558499       0.43680004       0.43810824       0.60569003       0.60528068       0.60434677       0.67944065       0.67865640       0.67805991       0.67764050       0.82667765       0.82649233       0.82637467       1.71321984       1.71317412       1.71314638       2.07713885
           2.07713092       2.07712574       4.95914172       4.50007939       3.77018398       2.76132920       1.58811559       3.36255970       5.29395538       7.16329073      11.99278577      19.50680071      36.57846888      23.81909892      25.30207284      53.04102168      19.41849710      13.28931048      17.52791719      11.56444423       7.65520745       3.44447165       6.43856472       6.61806144       4.35893566       7.00210639       5.98382750       4.20652346       2.90145064       0.84734400       0.11980030       0.44673744       0.55989626       0.46328777       1.05320135       2.18275540       5.21234822       1.14636926       0.19623746       0.01517981       0.07196898       0.09474556       0.03148584       0.12681088       0.25409655       0.25803115       0.29389886       0.30677510       0.44561669       0.61112309       0.61351363       0.61235204       0.60988438       0.68358502       0.68149318       0.67991157       0.67880850       0.82743843       0.82695410       1.71358377       1.71339388       1.71327653       1.71320704       2.07716780       2.07714769
           2.07713550       2.07712818       5.23986862       4.88026253       4.28480830       3.50637653       2.63347048       3.31355090       4.25882714       5.29069402       8.53889885      14.43610829      17.60830210      17.69724274      21.13573726      20.35946957      18.03075185      18.50495969      20.22060269      19.22884445      17.20781014      16.06590742      15.93882106      14.31186876      14.20236022      12.31747092       7.63766011       5.72130326       3.42097462       1.30763894       0.67125433       0.71116485       0.95639534       1.00962440       1.70459004       2.61285868       3.62013398       1.45777062       0.30820431       0.09569092       0.11142598       0.12046196       0.11479774       0.18913023       0.24968180       0.31859098       0.34417864       0.47109979       0.62817634       0.63287910       0.63028891       0.62422522       0.69437738       0.68885623       0.68467925       0.83134200       0.82937482       0.82811874       1.71431956       1.71383096       1.71353317       1.71335487       2.07723974       2.07718823       2.07715866
           2.07714159       2.07713153       3.97216274       3.98417186       3.92752783       3.92189818       3.88803794       3.24913447       3.10181854       3.02050643       4.38869633       8.03025166      12.68891849      12.42443438      11.81776656      10.22513474      15.77947162      25.26032743      34.96098672      40.65727200      53.44293096      74.22852312      63.53016504      50.90260584      47.71375776      31.35657432      14.61113664       8.69714491       5.09538427       2.51594904       1.47922610       1.29040219       1.46654459       1.68160873       2.46200341       3.87884213       5.66877098       2.14555669       0.47751431       0.20351344       0.18548689       0.22598728       0.24746432       0.28896067       0.38346766       0.46543844       0.51782533       0.66727791       0.67511432       0.67309411       0.66071923       0.64455690       0.70798853       0.69693953       1.38582288       1.38044438       1.71819875       1.71616939       1.71491971       1.71416624       1.71371941       2.07741896       2.07728911       2.07721505       2.07717207
           2.07714952       4.40450326       4.64395109       4.80330358       4.74772025       4.86504082       6.00495929       3.76061326       2.25332148       1.41131270       3.00334802       5.77897447      12.28625026       9.34626223       7.58478646       3.50537678      10.76549333      28.34425421      59.73881880      58.85331384     113.87739480     386.98170000     145.30971192     119.99588904     192.91989864      61.07670792      25.87523095      13.50283507       8.68466335       4.01606309       3.20039086       2.04033638       1.95813121       2.85918432       2.68523192       6.00562985      42.07581120       3.29456796       0.68235149       0.17985791       0.28913703       0.34609949       0.65228480       0.47357233       0.53477312       0.84581817       0.73133041       0.73580061       0.75872706       0.75073459       0.71589199       0.75856064       1.42907004       1.40809858       1.39394123       1.72600650       1.72076852       1.71759494       1.71570853       1.71460150       2.07785330       2.07753204       2.07734946       2.07724675       2.07718914