# File generated by Flopy version 3.8.0 on 08/20/2024 at 11:26:02.
BEGIN options
  auxiliary  multiplier
  AUXMULTNAME  multiplier
  BOUNDNAMES
  SAVE_FLOWS
  TS6  FILEIN  mf6-tv_hist-tributary_underflow_rates-deep.ts
END options

BEGIN dimensions
  MAXBOUND  348
END dimensions

BEGIN period  1
  5 5 12 tr1_l5 1.18050500E+00 tr1_dp
  6 5 12 tr1_l6 1.18050500E+00 tr1_dp
  5 6 14 tr2_l5 1.18050500E+00 tr2_dp
  6 6 14 tr2_l6 1.18050500E+00 tr2_dp
  5 7 16 tr3_l5 1.18050500E+00 tr3_dp
  6 7 16 tr3_l6 1.18050500E+00 tr3_dp
  5 8 17 tr4_l5 1.18050500E+00 tr4_dp
  6 8 17 tr4_l6 1.18050500E+00 tr4_dp
  4 10 19 tr5_l4 1.18050500E+00 tr5_dp
  5 10 19 tr5_l5 1.18050500E+00 tr5_dp
  6 10 19 tr5_l6 1.18050500E+00 tr5_dp
  4 10 19 tr6_l4 1.51247000E+00 tr6_dp
  5 10 19 tr6_l5 1.51247000E+00 tr6_dp
  6 10 19 tr6_l6 1.51247000E+00 tr6_dp
  4 12 23 tr7_l4 1.51247000E+00 tr7_dp
  5 12 23 tr7_l5 1.51247000E+00 tr7_dp
  6 12 23 tr7_l6 1.51247000E+00 tr7_dp
  4 13 25 tr8_l4 1.51247000E+00 tr8_dp
  5 13 25 tr8_l5 1.51247000E+00 tr8_dp
  6 13 25 tr8_l6 1.51247000E+00 tr8_dp
  4 13 26 tr9_l4 1.51247000E+00 tr9_dp
  5 13 26 tr9_l5 1.51247000E+00 tr9_dp
  6 13 26 tr9_l6 1.51247000E+00 tr9_dp
  4 13 28 tr10_l4 1.51247000E+00 tr10_dp
  5 13 28 tr10_l5 1.51247000E+00 tr10_dp
  6 13 28 tr10_l6 1.51247000E+00 tr10_dp
  4 13 34 tr11_l4 1.51247000E+00 tr11_dp
  5 13 34 tr11_l5 1.51247000E+00 tr11_dp
  6 13 34 tr11_l6 1.51247000E+00 tr11_dp
  4 14 29 tr12_l4 1.51247000E+00 tr12_dp
  5 14 29 tr12_l5 1.51247000E+00 tr12_dp
  6 14 29 tr12_l6 1.51247000E+00 tr12_dp
  4 14 29 tr13_l4 1.51247000E+00 tr13_dp
  5 14 29 tr13_l5 1.51247000E+00 tr13_dp
  6 14 29 tr13_l6 1.51247000E+00 tr13_dp
  4 14 30 tr14_l4 1.51247000E+00 tr14_dp
  5 14 30 tr14_l5 1.51247000E+00 tr14_dp
  6 14 30 tr14_l6 1.51247000E+00 tr14_dp
  4 14 31 tr15_l4 1.51247000E+00 tr15_dp
  5 14 31 tr15_l5 1.51247000E+00 tr15_dp
  6 14 31 tr15_l6 1.51247000E+00 tr15_dp
  4 14 32 tr16_l4 1.51247000E+00 tr16_dp
  5 14 32 tr16_l5 1.51247000E+00 tr16_dp
  6 14 32 tr16_l6 1.51247000E+00 tr16_dp
  2 18 37 tr17_l2 2.50745000E+00 tr17_dp
  3 18 37 tr17_l3 2.50745000E+00 tr17_dp
  4 18 37 tr17_l4 2.50745000E+00 tr17_dp
  6 18 37 tr17_l6 2.50745000E+00 tr17_dp
  2 18 37 tr18_l2 2.50745000E+00 tr18_dp
  3 18 37 tr18_l3 2.50745000E+00 tr18_dp
  4 18 37 tr18_l4 2.50745000E+00 tr18_dp
  6 18 37 tr18_l6 2.50745000E+00 tr18_dp
  2 20 38 tr19_l2 2.50745000E+00 tr19_dp
  3 20 38 tr19_l3 2.50745000E+00 tr19_dp
  4 20 38 tr19_l4 2.50745000E+00 tr19_dp
  6 20 38 tr19_l6 2.50745000E+00 tr19_dp
  2 21 38 tr20_l2 2.50745000E+00 tr20_dp
  3 21 38 tr20_l3 2.50745000E+00 tr20_dp
  4 21 38 tr20_l4 2.50745000E+00 tr20_dp
  6 21 38 tr20_l6 2.50745000E+00 tr20_dp
  2 24 41 tr21_l2 2.51148600E+00 tr21_dp
  3 24 41 tr21_l3 2.51148600E+00 tr21_dp
  4 24 41 tr21_l4 2.51148600E+00 tr21_dp
  6 24 41 tr21_l6 2.51148600E+00 tr21_dp
  2 25 43 tr22_l2 2.51148600E+00 tr22_dp
  3 25 43 tr22_l3 2.51148600E+00 tr22_dp
  4 25 43 tr22_l4 2.51148600E+00 tr22_dp
  6 25 43 tr22_l6 2.51148600E+00 tr22_dp
  2 25 43 tr23_l2 2.51148600E+00 tr23_dp
  3 25 43 tr23_l3 2.51148600E+00 tr23_dp
  4 25 43 tr23_l4 2.51148600E+00 tr23_dp
  6 25 43 tr23_l6 2.51148600E+00 tr23_dp
  2 26 45 tr24_l2 2.51148600E+00 tr24_dp
  3 26 45 tr24_l3 2.51148600E+00 tr24_dp
  4 26 45 tr24_l4 2.51148600E+00 tr24_dp
  6 26 45 tr24_l6 2.51148600E+00 tr24_dp
  2 26 45 tr25_l2 2.51148600E+00 tr25_dp
  3 26 45 tr25_l3 2.51148600E+00 tr25_dp
  4 26 45 tr25_l4 2.51148600E+00 tr25_dp
  6 26 45 tr25_l6 2.51148600E+00 tr25_dp
  2 27 45 tr26_l2 2.51148600E+00 tr26_dp
  3 27 45 tr26_l3 2.51148600E+00 tr26_dp
  4 27 45 tr26_l4 2.51148600E+00 tr26_dp
  6 27 45 tr26_l6 2.51148600E+00 tr26_dp
  2 29 47 tr27_l2 2.01217000E+00 tr27_dp
  3 29 47 tr27_l3 2.01217000E+00 tr27_dp
  4 29 47 tr27_l4 2.01217000E+00 tr27_dp
  6 29 47 tr27_l6 2.01217000E+00 tr27_dp
  2 29 47 tr28_l2 2.01217000E+00 tr28_dp
  3 29 47 tr28_l3 2.01217000E+00 tr28_dp
  4 29 47 tr28_l4 2.01217000E+00 tr28_dp
  6 29 47 tr28_l6 2.01217000E+00 tr28_dp
  2 29 47 tr29_l2 2.01217000E+00 tr29_dp
  3 29 47 tr29_l3 2.01217000E+00 tr29_dp
  4 29 47 tr29_l4 2.01217000E+00 tr29_dp
  6 29 47 tr29_l6 2.01217000E+00 tr29_dp
  2 30 48 tr30_l2 2.01217000E+00 tr30_dp
  3 30 48 tr30_l3 2.01217000E+00 tr30_dp
  4 30 48 tr30_l4 2.01217000E+00 tr30_dp
  6 30 48 tr30_l6 2.01217000E+00 tr30_dp
  2 30 48 tr31_l2 2.01217000E+00 tr31_dp
  3 30 48 tr31_l3 2.01217000E+00 tr31_dp
  4 30 48 tr31_l4 2.01217000E+00 tr31_dp
  6 30 48 tr31_l6 2.01217000E+00 tr31_dp
  2 31 48 tr32_l2 2.01217000E+00 tr32_dp
  3 31 48 tr32_l3 2.01217000E+00 tr32_dp
  4 31 48 tr32_l4 2.01217000E+00 tr32_dp
  6 31 48 tr32_l6 2.01217000E+00 tr32_dp
  2 32 48 tr33_l2 2.01217000E+00 tr33_dp
  3 32 48 tr33_l3 2.01217000E+00 tr33_dp
  4 32 48 tr33_l4 2.01217000E+00 tr33_dp
  6 32 48 tr33_l6 2.01217000E+00 tr33_dp
  2 32 48 tr34_l2 2.01217000E+00 tr34_dp
  3 32 48 tr34_l3 2.01217000E+00 tr34_dp
  4 32 48 tr34_l4 2.01217000E+00 tr34_dp
  6 32 48 tr34_l6 2.01217000E+00 tr34_dp
  2 33 49 tr35_l2 2.16109100E+00 tr35_dp
  3 33 49 tr35_l3 2.16109100E+00 tr35_dp
  4 33 49 tr35_l4 2.16109100E+00 tr35_dp
  5 33 49 tr35_l5 2.16109100E+00 tr35_dp
  6 33 49 tr35_l6 2.16109100E+00 tr35_dp
  2 34 49 tr36_l2 2.16109100E+00 tr36_dp
  3 34 49 tr36_l3 2.16109100E+00 tr36_dp
  4 34 49 tr36_l4 2.16109100E+00 tr36_dp
  5 34 49 tr36_l5 2.16109100E+00 tr36_dp
  6 34 49 tr36_l6 2.16109100E+00 tr36_dp
  2 34 49 tr37_l2 2.16109100E+00 tr37_dp
  3 34 49 tr37_l3 2.16109100E+00 tr37_dp
  4 34 49 tr37_l4 2.16109100E+00 tr37_dp
  5 34 49 tr37_l5 2.16109100E+00 tr37_dp
  6 34 49 tr37_l6 2.16109100E+00 tr37_dp
  2 36 51 tr38_l2 2.16109100E+00 tr38_dp
  3 36 51 tr38_l3 2.16109100E+00 tr38_dp
  4 36 51 tr38_l4 2.16109100E+00 tr38_dp
  5 36 51 tr38_l5 2.16109100E+00 tr38_dp
  6 36 51 tr38_l6 2.16109100E+00 tr38_dp
  2 38 51 tr39_l2 2.16109100E+00 tr39_dp
  3 38 51 tr39_l3 2.16109100E+00 tr39_dp
  4 38 51 tr39_l4 2.16109100E+00 tr39_dp
  5 38 51 tr39_l5 2.16109100E+00 tr39_dp
  6 38 51 tr39_l6 2.16109100E+00 tr39_dp
  2 39 52 tr40_l2 2.16109100E+00 tr40_dp
  3 39 52 tr40_l3 2.16109100E+00 tr40_dp
  4 39 52 tr40_l4 2.16109100E+00 tr40_dp
  5 39 52 tr40_l5 2.16109100E+00 tr40_dp
  6 39 52 tr40_l6 2.16109100E+00 tr40_dp
  2 43 57 tr41_l2 1.03034100E+00 tr41_dp
  3 43 57 tr41_l3 1.03034100E+00 tr41_dp
  4 43 57 tr41_l4 1.03034100E+00 tr41_dp
  5 43 57 tr41_l5 1.03034100E+00 tr41_dp
  6 43 57 tr41_l6 1.03034100E+00 tr41_dp
  2 44 58 tr42_l2 1.03034100E+00 tr42_dp
  3 44 58 tr42_l3 1.03034100E+00 tr42_dp
  4 44 58 tr42_l4 1.03034100E+00 tr42_dp
  5 44 58 tr42_l5 1.03034100E+00 tr42_dp
  6 44 58 tr42_l6 1.03034100E+00 tr42_dp
  2 45 60 tr43_l2 1.03034100E+00 tr43_dp
  3 45 60 tr43_l3 1.03034100E+00 tr43_dp
  4 45 60 tr43_l4 1.03034100E+00 tr43_dp
  5 45 60 tr43_l5 1.03034100E+00 tr43_dp
  6 45 60 tr43_l6 1.03034100E+00 tr43_dp
  2 45 60 tr44_l2 1.03034100E+00 tr44_dp
  3 45 60 tr44_l3 1.03034100E+00 tr44_dp
  4 45 60 tr44_l4 1.03034100E+00 tr44_dp
  5 45 60 tr44_l5 1.03034100E+00 tr44_dp
  6 45 60 tr44_l6 1.03034100E+00 tr44_dp
  2 46 61 tr45_l2 1.02039200E+00 tr45_dp
  3 46 61 tr45_l3 1.02039200E+00 tr45_dp
  4 46 61 tr45_l4 1.02039200E+00 tr45_dp
  5 46 61 tr45_l5 1.02039200E+00 tr45_dp
  6 46 61 tr45_l6 1.02039200E+00 tr45_dp
  2 47 62 tr46_l2 1.02039200E+00 tr46_dp
  3 47 62 tr46_l3 1.02039200E+00 tr46_dp
  4 47 62 tr46_l4 1.02039200E+00 tr46_dp
  5 47 62 tr46_l5 1.02039200E+00 tr46_dp
  6 47 62 tr46_l6 1.02039200E+00 tr46_dp
  2 39 53 tr47_l2 7.51129200E-01 tr47_dp
  2 40 53 tr47_l2 7.51129200E-01 tr47_dp
  2 41 53 tr47_l2 7.51129200E-01 tr47_dp
  3 39 53 tr47_l3 7.51129200E-01 tr47_dp
  3 40 53 tr47_l3 7.51129200E-01 tr47_dp
  3 41 53 tr47_l3 7.51129200E-01 tr47_dp
  4 39 53 tr47_l4 7.51129200E-01 tr47_dp
  4 40 53 tr47_l4 7.51129200E-01 tr47_dp
  4 41 53 tr47_l4 7.51129200E-01 tr47_dp
  5 39 53 tr47_l5 7.51129200E-01 tr47_dp
  5 40 53 tr47_l5 7.51129200E-01 tr47_dp
  5 41 53 tr47_l5 7.51129200E-01 tr47_dp
  6 39 53 tr47_l6 7.51129200E-01 tr47_dp
  6 40 53 tr47_l6 7.51129200E-01 tr47_dp
  6 41 53 tr47_l6 7.51129200E-01 tr47_dp
  3 14 35 tr48_l3 1.70318000E-01 tr48_dp
  4 13 34 tr48_l4 1.70318000E-01 tr48_dp
  4 14 35 tr48_l4 1.70318000E-01 tr48_dp
  5 13 34 tr48_l5 1.70318000E-01 tr48_dp
  5 14 35 tr48_l5 1.70318000E-01 tr48_dp
  6 13 34 tr48_l6 1.70318000E-01 tr48_dp
  6 14 35 tr48_l6 1.70318000E-01 tr48_dp
  2 49 63 tr49_l2 2.01185500E-01 tr49_dp
  2 50 64 tr49_l2 2.01185500E-01 tr49_dp
  2 51 64 tr49_l2 2.01185500E-01 tr49_dp
  3 49 63 tr49_l3 2.01185500E-01 tr49_dp
  3 50 64 tr49_l3 2.01185500E-01 tr49_dp
  3 51 64 tr49_l3 2.01185500E-01 tr49_dp
  4 49 63 tr49_l4 2.01185500E-01 tr49_dp
  4 50 64 tr49_l4 2.01185500E-01 tr49_dp
  4 51 64 tr49_l4 2.01185500E-01 tr49_dp
  5 49 63 tr49_l5 2.01185500E-01 tr49_dp
  5 50 64 tr49_l5 2.01185500E-01 tr49_dp
  5 51 64 tr49_l5 2.01185500E-01 tr49_dp
  6 49 63 tr49_l6 2.01185500E-01 tr49_dp
  6 50 64 tr49_l6 2.01185500E-01 tr49_dp
  6 51 64 tr49_l6 2.01185500E-01 tr49_dp
  2 52 63 tr50_l2 0.00000000E+00 tr50_dp
  2 53 62 tr50_l2 0.00000000E+00 tr50_dp
  2 54 61 tr50_l2 0.00000000E+00 tr50_dp
  2 55 60 tr50_l2 0.00000000E+00 tr50_dp
  2 56 58 tr50_l2 0.00000000E+00 tr50_dp
  2 56 59 tr50_l2 0.00000000E+00 tr50_dp
  2 56 60 tr50_l2 0.00000000E+00 tr50_dp
  2 57 55 tr50_l2 0.00000000E+00 tr50_dp
  2 57 56 tr50_l2 0.00000000E+00 tr50_dp
  2 57 57 tr50_l2 0.00000000E+00 tr50_dp
  2 58 47 tr50_l2 0.00000000E+00 tr50_dp
  2 58 51 tr50_l2 0.00000000E+00 tr50_dp
  2 58 52 tr50_l2 0.00000000E+00 tr50_dp
  2 58 53 tr50_l2 0.00000000E+00 tr50_dp
  2 58 54 tr50_l2 0.00000000E+00 tr50_dp
  2 59 44 tr50_l2 0.00000000E+00 tr50_dp
  2 59 45 tr50_l2 0.00000000E+00 tr50_dp
  2 59 46 tr50_l2 0.00000000E+00 tr50_dp
  2 59 48 tr50_l2 0.00000000E+00 tr50_dp
  2 59 49 tr50_l2 0.00000000E+00 tr50_dp
  2 59 50 tr50_l2 0.00000000E+00 tr50_dp
  2 60 42 tr50_l2 0.00000000E+00 tr50_dp
  2 60 43 tr50_l2 0.00000000E+00 tr50_dp
  2 61 41 tr50_l2 0.00000000E+00 tr50_dp
  2 62 40 tr50_l2 0.00000000E+00 tr50_dp
  2 63 39 tr50_l2 0.00000000E+00 tr50_dp
  2 64 38 tr50_l2 0.00000000E+00 tr50_dp
  3 52 63 tr50_l3 0.00000000E+00 tr50_dp
  3 53 62 tr50_l3 0.00000000E+00 tr50_dp
  3 54 61 tr50_l3 0.00000000E+00 tr50_dp
  3 55 60 tr50_l3 0.00000000E+00 tr50_dp
  3 56 58 tr50_l3 0.00000000E+00 tr50_dp
  3 56 59 tr50_l3 0.00000000E+00 tr50_dp
  3 56 60 tr50_l3 0.00000000E+00 tr50_dp
  3 57 55 tr50_l3 0.00000000E+00 tr50_dp
  3 57 56 tr50_l3 0.00000000E+00 tr50_dp
  3 57 57 tr50_l3 0.00000000E+00 tr50_dp
  3 58 47 tr50_l3 0.00000000E+00 tr50_dp
  3 58 51 tr50_l3 0.00000000E+00 tr50_dp
  3 58 52 tr50_l3 0.00000000E+00 tr50_dp
  3 58 53 tr50_l3 0.00000000E+00 tr50_dp
  3 58 54 tr50_l3 0.00000000E+00 tr50_dp
  3 59 44 tr50_l3 0.00000000E+00 tr50_dp
  3 59 45 tr50_l3 0.00000000E+00 tr50_dp
  3 59 46 tr50_l3 0.00000000E+00 tr50_dp
  3 59 48 tr50_l3 0.00000000E+00 tr50_dp
  3 59 49 tr50_l3 0.00000000E+00 tr50_dp
  3 59 50 tr50_l3 0.00000000E+00 tr50_dp
  3 60 42 tr50_l3 0.00000000E+00 tr50_dp
  3 60 43 tr50_l3 0.00000000E+00 tr50_dp
  3 61 41 tr50_l3 0.00000000E+00 tr50_dp
  3 62 40 tr50_l3 0.00000000E+00 tr50_dp
  3 63 39 tr50_l3 0.00000000E+00 tr50_dp
  3 64 38 tr50_l3 0.00000000E+00 tr50_dp
  4 52 63 tr50_l4 0.00000000E+00 tr50_dp
  4 53 62 tr50_l4 0.00000000E+00 tr50_dp
  4 54 61 tr50_l4 0.00000000E+00 tr50_dp
  4 55 60 tr50_l4 0.00000000E+00 tr50_dp
  4 56 58 tr50_l4 0.00000000E+00 tr50_dp
  4 56 59 tr50_l4 0.00000000E+00 tr50_dp
  4 56 60 tr50_l4 0.00000000E+00 tr50_dp
  4 57 55 tr50_l4 0.00000000E+00 tr50_dp
  4 57 56 tr50_l4 0.00000000E+00 tr50_dp
  4 57 57 tr50_l4 0.00000000E+00 tr50_dp
  4 58 47 tr50_l4 0.00000000E+00 tr50_dp
  4 58 51 tr50_l4 0.00000000E+00 tr50_dp
  4 58 52 tr50_l4 0.00000000E+00 tr50_dp
  4 58 53 tr50_l4 0.00000000E+00 tr50_dp
  4 58 54 tr50_l4 0.00000000E+00 tr50_dp
  4 59 44 tr50_l4 0.00000000E+00 tr50_dp
  4 59 45 tr50_l4 0.00000000E+00 tr50_dp
  4 59 46 tr50_l4 0.00000000E+00 tr50_dp
  4 59 48 tr50_l4 0.00000000E+00 tr50_dp
  4 59 49 tr50_l4 0.00000000E+00 tr50_dp
  4 59 50 tr50_l4 0.00000000E+00 tr50_dp
  4 60 42 tr50_l4 0.00000000E+00 tr50_dp
  4 60 43 tr50_l4 0.00000000E+00 tr50_dp
  4 61 41 tr50_l4 0.00000000E+00 tr50_dp
  4 62 40 tr50_l4 0.00000000E+00 tr50_dp
  4 63 39 tr50_l4 0.00000000E+00 tr50_dp
  4 64 38 tr50_l4 0.00000000E+00 tr50_dp
  5 52 63 tr50_l5 0.00000000E+00 tr50_dp
  5 53 62 tr50_l5 0.00000000E+00 tr50_dp
  5 54 61 tr50_l5 0.00000000E+00 tr50_dp
  5 55 60 tr50_l5 0.00000000E+00 tr50_dp
  5 56 58 tr50_l5 0.00000000E+00 tr50_dp
  5 56 59 tr50_l5 0.00000000E+00 tr50_dp
  5 56 60 tr50_l5 0.00000000E+00 tr50_dp
  5 57 55 tr50_l5 0.00000000E+00 tr50_dp
  5 57 56 tr50_l5 0.00000000E+00 tr50_dp
  5 57 57 tr50_l5 0.00000000E+00 tr50_dp
  5 58 47 tr50_l5 0.00000000E+00 tr50_dp
  5 58 51 tr50_l5 0.00000000E+00 tr50_dp
  5 58 52 tr50_l5 0.00000000E+00 tr50_dp
  5 58 53 tr50_l5 0.00000000E+00 tr50_dp
  5 58 54 tr50_l5 0.00000000E+00 tr50_dp
  5 59 44 tr50_l5 0.00000000E+00 tr50_dp
  5 59 45 tr50_l5 0.00000000E+00 tr50_dp
  5 59 46 tr50_l5 0.00000000E+00 tr50_dp
  5 59 48 tr50_l5 0.00000000E+00 tr50_dp
  5 59 49 tr50_l5 0.00000000E+00 tr50_dp
  5 59 50 tr50_l5 0.00000000E+00 tr50_dp
  5 60 42 tr50_l5 0.00000000E+00 tr50_dp
  5 60 43 tr50_l5 0.00000000E+00 tr50_dp
  5 61 41 tr50_l5 0.00000000E+00 tr50_dp
  5 62 40 tr50_l5 0.00000000E+00 tr50_dp
  5 63 39 tr50_l5 0.00000000E+00 tr50_dp
  5 64 38 tr50_l5 0.00000000E+00 tr50_dp
  6 52 63 tr50_l6 0.00000000E+00 tr50_dp
  6 53 62 tr50_l6 0.00000000E+00 tr50_dp
  6 54 61 tr50_l6 0.00000000E+00 tr50_dp
  6 55 60 tr50_l6 0.00000000E+00 tr50_dp
  6 56 58 tr50_l6 0.00000000E+00 tr50_dp
  6 56 59 tr50_l6 0.00000000E+00 tr50_dp
  6 56 60 tr50_l6 0.00000000E+00 tr50_dp
  6 57 55 tr50_l6 0.00000000E+00 tr50_dp
  6 57 56 tr50_l6 0.00000000E+00 tr50_dp
  6 57 57 tr50_l6 0.00000000E+00 tr50_dp
  6 58 47 tr50_l6 0.00000000E+00 tr50_dp
  6 58 51 tr50_l6 0.00000000E+00 tr50_dp
  6 58 52 tr50_l6 0.00000000E+00 tr50_dp
  6 58 53 tr50_l6 0.00000000E+00 tr50_dp
  6 58 54 tr50_l6 0.00000000E+00 tr50_dp
  6 59 44 tr50_l6 0.00000000E+00 tr50_dp
  6 59 45 tr50_l6 0.00000000E+00 tr50_dp
  6 59 46 tr50_l6 0.00000000E+00 tr50_dp
  6 59 48 tr50_l6 0.00000000E+00 tr50_dp
  6 59 49 tr50_l6 0.00000000E+00 tr50_dp
  6 59 50 tr50_l6 0.00000000E+00 tr50_dp
  6 60 42 tr50_l6 0.00000000E+00 tr50_dp
  6 60 43 tr50_l6 0.00000000E+00 tr50_dp
  6 61 41 tr50_l6 0.00000000E+00 tr50_dp
  6 62 40 tr50_l6 0.00000000E+00 tr50_dp
  6 63 39 tr50_l6 0.00000000E+00 tr50_dp
  6 64 38 tr50_l6 0.00000000E+00 tr50_dp
END period  1

