# File generated by Flopy version 3.8.0 on 08/20/2024 at 11:25:55.
BEGIN options
END options

BEGIN continuous  FILEOUT  sim_equiv-tv_hist-ny_canal_riv_obs.csv
  nyriv  riv  nyriv
END continuous  FILEOUT  sim_equiv-tv_hist-ny_canal_riv_obs.csv

