# File generated by Flopy version 3.8.0 on 08/20/2024 at 11:25:50.
BEGIN options
END options

BEGIN continuous  FILEOUT  sim_equiv-tv_hist-riv_obs.csv
  riv01  riv  riv01
  riv02  riv  riv02
  riv03  riv  riv03
  riv04  riv  riv04
  riv05  riv  riv05
  riv06  riv  riv06
  riv07  riv  riv07
  riv08  riv  riv08
  riv09  riv  riv09
  riv10  riv  riv10
  riv11  riv  riv11
  riv12  riv  riv12
  riv13  riv  riv13
END continuous  FILEOUT  sim_equiv-tv_hist-riv_obs.csv

