# File generated by Flopy version 3.8.0 on 08/20/2024 at 11:25:49.
BEGIN options
  TIME_UNITS  days
  START_DATE_TIME  1985-12-01t14:24:00
END options

BEGIN dimensions
  NPER  361
END dimensions

BEGIN perioddata
      30.40000000  1       1.50000000
      31.00000000  1       1.50000000
      28.00000000  1       1.50000000
      31.00000000  1       1.50000000
      30.00000000  1       1.50000000
      31.00000000  1       1.50000000
      30.00000000  1       1.50000000
      31.00000000  1       1.50000000
      31.00000000  1       1.50000000
      30.00000000  1       1.50000000
      31.00000000  1       1.50000000
      30.00000000  1       1.50000000
      31.00000000  1       1.50000000
      31.00000000  1       1.50000000
      28.00000000  1       1.50000000
      31.00000000  1       1.50000000
      30.00000000  1       1.50000000
      31.00000000  1       1.50000000
      30.00000000  1       1.50000000
      31.00000000  1       1.50000000
      31.00000000  1       1.50000000
      30.00000000  1       1.50000000
      31.00000000  1       1.50000000
      30.00000000  1       1.50000000
      31.00000000  1       1.50000000
      31.00000000  1       1.50000000
      29.00000000  1       1.50000000
      31.00000000  1       1.50000000
      30.00000000  1       1.50000000
      31.00000000  1       1.50000000
      30.00000000  1       1.50000000
      31.00000000  1       1.50000000
      31.00000000  1       1.50000000
      30.00000000  1       1.50000000
      31.00000000  1       1.50000000
      30.00000000  1       1.50000000
      31.00000000  1       1.50000000
      31.00000000  1       1.50000000
      28.00000000  1       1.50000000
      31.00000000  1       1.50000000
      30.00000000  1       1.50000000
      31.00000000  1       1.50000000
      30.00000000  1       1.50000000
      31.00000000  1       1.50000000
      31.00000000  1       1.50000000
      30.00000000  1       1.50000000
      31.00000000  1       1.50000000
      30.00000000  1       1.50000000
      31.00000000  1       1.50000000
      31.00000000  1       1.50000000
      28.00000000  1       1.50000000
      31.00000000  1       1.50000000
      30.00000000  1       1.50000000
      31.00000000  1       1.50000000
      30.00000000  1       1.50000000
      31.00000000  1       1.50000000
      31.00000000  1       1.50000000
      30.00000000  1       1.50000000
      31.00000000  1       1.50000000
      30.00000000  1       1.50000000
      31.00000000  1       1.50000000
      31.00000000  1       1.50000000
      28.00000000  1       1.50000000
      31.00000000  1       1.50000000
      30.00000000  1       1.50000000
      31.00000000  1       1.50000000
      30.00000000  1       1.50000000
      31.00000000  1       1.50000000
      31.00000000  1       1.50000000
      30.00000000  1       1.50000000
      31.00000000  1       1.50000000
      30.00000000  1       1.50000000
      31.00000000  1       1.50000000
      31.00000000  1       1.50000000
      29.00000000  1       1.50000000
      31.00000000  1       1.50000000
      30.00000000  1       1.50000000
      31.00000000  1       1.50000000
      30.00000000  1       1.50000000
      31.00000000  1       1.50000000
      31.00000000  1       1.50000000
      30.00000000  1       1.50000000
      31.00000000  1       1.50000000
      30.00000000  1       1.50000000
      31.00000000  1       1.50000000
      31.00000000  1       1.50000000
      28.00000000  1       1.50000000
      31.00000000  1       1.50000000
      30.00000000  1       1.50000000
      31.00000000  1       1.50000000
      30.00000000  1       1.50000000
      31.00000000  1       1.50000000
      31.00000000  1       1.50000000
      30.00000000  1       1.50000000
      31.00000000  1       1.50000000
      30.00000000  1       1.50000000
      31.00000000  1       1.50000000
      31.00000000  1       1.50000000
      28.00000000  1       1.50000000
      31.00000000  1       1.50000000
      30.00000000  1       1.50000000
      31.00000000  1       1.50000000
      30.00000000  1       1.50000000
      31.00000000  1       1.50000000
      31.00000000  1       1.50000000
      30.00000000  1       1.50000000
      31.00000000  1       1.50000000
      30.00000000  1       1.50000000
      31.00000000  1       1.50000000
      31.00000000  1       1.50000000
      28.00000000  1       1.50000000
      31.00000000  1       1.50000000
      30.00000000  1       1.50000000
      31.00000000  1       1.50000000
      30.00000000  1       1.50000000
      31.00000000  1       1.50000000
      31.00000000  1       1.50000000
      30.00000000  1       1.50000000
      31.00000000  1       1.50000000
      30.00000000  1       1.50000000
      31.00000000  1       1.50000000
      31.00000000  1       1.50000000
      29.00000000  1       1.50000000
      31.00000000  1       1.50000000
      30.00000000  1       1.50000000
      31.00000000  1       1.50000000
      30.00000000  1       1.50000000
      31.00000000  1       1.50000000
      31.00000000  1       1.50000000
      30.00000000  1       1.50000000
      31.00000000  1       1.50000000
      30.00000000  1       1.50000000
      31.00000000  1       1.50000000
      31.00000000  1       1.50000000
      28.00000000  1       1.50000000
      31.00000000  1       1.50000000
      30.00000000  1       1.50000000
      31.00000000  1       1.50000000
      30.00000000  1       1.50000000
      31.00000000  1       1.50000000
      31.00000000  1       1.50000000
      30.00000000  1       1.50000000
      31.00000000  1       1.50000000
      30.00000000  1       1.50000000
      31.00000000  1       1.50000000
      31.00000000  1       1.50000000
      28.00000000  1       1.50000000
      31.00000000  1       1.50000000
      30.00000000  1       1.50000000
      31.00000000  1       1.50000000
      30.00000000  1       1.50000000
      31.00000000  1       1.50000000
      31.00000000  1       1.50000000
      30.00000000  1       1.50000000
      31.00000000  1       1.50000000
      30.00000000  1       1.50000000
      31.00000000  1       1.50000000
      31.00000000  1       1.50000000
      28.00000000  1       1.50000000
      31.00000000  1       1.50000000
      30.00000000  1       1.50000000
      31.00000000  1       1.50000000
      30.00000000  1       1.50000000
      31.00000000  1       1.50000000
      31.00000000  1       1.50000000
      30.00000000  1       1.50000000
      31.00000000  1       1.50000000
      30.00000000  1       1.50000000
      31.00000000  1       1.50000000
      31.00000000  1       1.50000000
      29.00000000  1       1.50000000
      31.00000000  1       1.50000000
      30.00000000  1       1.50000000
      31.00000000  1       1.50000000
      30.00000000  1       1.50000000
      31.00000000  1       1.50000000
      31.00000000  1       1.50000000
      30.00000000  1       1.50000000
      31.00000000  1       1.50000000
      30.00000000  1       1.50000000
      31.00000000  1       1.50000000
      31.00000000  1       1.50000000
      28.00000000  1       1.50000000
      31.00000000  1       1.50000000
      30.00000000  1       1.50000000
      31.00000000  1       1.50000000
      30.00000000  1       1.50000000
      31.00000000  1       1.50000000
      31.00000000  1       1.50000000
      30.00000000  1       1.50000000
      31.00000000  1       1.50000000
      30.00000000  1       1.50000000
      31.00000000  1       1.50000000
      31.00000000  1       1.50000000
      28.00000000  1       1.50000000
      31.00000000  1       1.50000000
      30.00000000  1       1.50000000
      31.00000000  1       1.50000000
      30.00000000  1       1.50000000
      31.00000000  1       1.50000000
      31.00000000  1       1.50000000
      30.00000000  1       1.50000000
      31.00000000  1       1.50000000
      30.00000000  1       1.50000000
      31.00000000  1       1.50000000
      31.00000000  1       1.50000000
      28.00000000  1       1.50000000
      31.00000000  1       1.50000000
      30.00000000  1       1.50000000
      31.00000000  1       1.50000000
      30.00000000  1       1.50000000
      31.00000000  1       1.50000000
      31.00000000  1       1.50000000
      30.00000000  1       1.50000000
      31.00000000  1       1.50000000
      30.00000000  1       1.50000000
      31.00000000  1       1.50000000
      31.00000000  1       1.50000000
      29.00000000  1       1.50000000
      31.00000000  1       1.50000000
      30.00000000  1       1.50000000
      31.00000000  1       1.50000000
      30.00000000  1       1.50000000
      31.00000000  1       1.50000000
      31.00000000  1       1.50000000
      30.00000000  1       1.50000000
      31.00000000  1       1.50000000
      30.00000000  1       1.50000000
      31.00000000  1       1.50000000
      31.00000000  1       1.50000000
      28.00000000  1       1.50000000
      31.00000000  1       1.50000000
      30.00000000  1       1.50000000
      31.00000000  1       1.50000000
      30.00000000  1       1.50000000
      31.00000000  1       1.50000000
      31.00000000  1       1.50000000
      30.00000000  1       1.50000000
      31.00000000  1       1.50000000
      30.00000000  1       1.50000000
      31.00000000  1       1.50000000
      31.00000000  1       1.50000000
      28.00000000  1       1.50000000
      31.00000000  1       1.50000000
      30.00000000  1       1.50000000
      31.00000000  1       1.50000000
      30.00000000  1       1.50000000
      31.00000000  1       1.50000000
      31.00000000  1       1.50000000
      30.00000000  1       1.50000000
      31.00000000  1       1.50000000
      30.00000000  1       1.50000000
      31.00000000  1       1.50000000
      31.00000000  1       1.50000000
      28.00000000  1       1.50000000
      31.00000000  1       1.50000000
      30.00000000  1       1.50000000
      31.00000000  1       1.50000000
      30.00000000  1       1.50000000
      31.00000000  1       1.50000000
      31.00000000  1       1.50000000
      30.00000000  1       1.50000000
      31.00000000  1       1.50000000
      30.00000000  1       1.50000000
      31.00000000  1       1.50000000
      31.00000000  1       1.50000000
      29.00000000  1       1.50000000
      31.00000000  1       1.50000000
      30.00000000  1       1.50000000
      31.00000000  1       1.50000000
      30.00000000  1       1.50000000
      31.00000000  1       1.50000000
      31.00000000  1       1.50000000
      30.00000000  1       1.50000000
      31.00000000  1       1.50000000
      30.00000000  1       1.50000000
      31.00000000  1       1.50000000
      31.00000000  1       1.50000000
      28.00000000  1       1.50000000
      31.00000000  1       1.50000000
      30.00000000  1       1.50000000
      31.00000000  1       1.50000000
      30.00000000  1       1.50000000
      31.00000000  1       1.50000000
      31.00000000  1       1.50000000
      30.00000000  1       1.50000000
      31.00000000  1       1.50000000
      30.00000000  1       1.50000000
      31.00000000  1       1.50000000
      31.00000000  1       1.50000000
      28.00000000  1       1.50000000
      31.00000000  1       1.50000000
      30.00000000  1       1.50000000
      31.00000000  1       1.50000000
      30.00000000  1       1.50000000
      31.00000000  1       1.50000000
      31.00000000  1       1.50000000
      30.00000000  1       1.50000000
      31.00000000  1       1.50000000
      30.00000000  1       1.50000000
      31.00000000  1       1.50000000
      31.00000000  1       1.50000000
      28.00000000  1       1.50000000
      31.00000000  1       1.50000000
      30.00000000  1       1.50000000
      31.00000000  1       1.50000000
      30.00000000  1       1.50000000
      31.00000000  1       1.50000000
      31.00000000  1       1.50000000
      30.00000000  1       1.50000000
      31.00000000  1       1.50000000
      30.00000000  1       1.50000000
      31.00000000  1       1.50000000
      31.00000000  1       1.50000000
      29.00000000  1       1.50000000
      31.00000000  1       1.50000000
      30.00000000  1       1.50000000
      31.00000000  1       1.50000000
      30.00000000  1       1.50000000
      31.00000000  1       1.50000000
      31.00000000  1       1.50000000
      30.00000000  1       1.50000000
      31.00000000  1       1.50000000
      30.00000000  1       1.50000000
      31.00000000  1       1.50000000
      31.00000000  1       1.50000000
      28.00000000  1       1.50000000
      31.00000000  1       1.50000000
      30.00000000  1       1.50000000
      31.00000000  1       1.50000000
      30.00000000  1       1.50000000
      31.00000000  1       1.50000000
      31.00000000  1       1.50000000
      30.00000000  1       1.50000000
      31.00000000  1       1.50000000
      30.00000000  1       1.50000000
      31.00000000  1       1.50000000
      31.00000000  1       1.50000000
      28.00000000  1       1.50000000
      31.00000000  1       1.50000000
      30.00000000  1       1.50000000
      31.00000000  1       1.50000000
      30.00000000  1       1.50000000
      31.00000000  1       1.50000000
      31.00000000  1       1.50000000
      30.00000000  1       1.50000000
      31.00000000  1       1.50000000
      30.00000000  1       1.50000000
      31.00000000  1       1.50000000
      31.00000000  1       1.50000000
      28.00000000  1       1.50000000
      31.00000000  1       1.50000000
      30.00000000  1       1.50000000
      31.00000000  1       1.50000000
      30.00000000  1       1.50000000
      31.00000000  1       1.50000000
      31.00000000  1       1.50000000
      30.00000000  1       1.50000000
      31.00000000  1       1.50000000
      30.00000000  1       1.50000000
      31.00000000  1       1.50000000
END perioddata

