# File generated by Flopy version 3.8.0 on 08/20/2024 at 11:26:09.
BEGIN options
  SAVE_FLOWS
  STORAGECOEFFICIENT
END options

BEGIN griddata
  iconvert
    CONSTANT  0
  ss  LAYERED
    INTERNAL  FACTOR  1.0
          65.00000000      64.00000000       0.07362925       0.07365362       0.07369629       0.07376969       0.07389274       0.07759561       0.07723125       0.07687772       0.07720478       0.07765421       0.07794842       0.07684206       0.07688272       0.07690234       0.08084787       0.08090690       0.08875961       0.08885267       0.08842878       0.08848130       0.09678768       0.10051410       0.11212700       0.11216280       0.11138530       0.11139320       0.11071760       0.10331590       0.10331250       0.11197330       0.11204750       0.12740110       0.11880740       0.10818230       0.10818340       0.10818490       0.10818670       0.10818850       0.10819040       0.10476710       0.10476840       0.11529840       0.11529960       0.11530050       0.11530130       0.11530170       0.11530210       0.11530240       0.12071140       0.12071150       0.12071160       0.12071160       0.12071170       0.12018810       0.12018810       0.12018810       0.11818640       0.11818640       0.11818640       0.10218970       0.10218970       0.11868550       0.10195240
           0.10195240       0.10195240       0.07363712       0.07366858       0.07372457       0.07382298       0.07399244       0.07746201       0.07677327       0.07550000       0.07678218       0.07746171       0.07782839       0.07686061       0.07689950       0.07691708       0.08074874       0.08083332       0.08858400       0.08825000       0.08836831       0.09664047       0.09675078       0.10658370       0.11210430       0.11136460       0.11138840       0.11071960       0.11071830       0.10331690       0.10532180       0.11196120       0.12737870       0.12737620       0.12239210       0.10816780       0.10817010       0.10817310       0.10817660       0.10818030       0.10818380       0.10476270       0.11529230       0.11529510       0.11529730       0.11529890       0.11530010       0.11530100       0.11530160       0.12071090       0.12071120       0.12071140       0.12071150       0.12071160       0.12018800       0.12018810       0.12018810       0.11818640       0.11818640       0.11818640       0.10218970       0.11868560       0.11868560       0.10195240       0.10195240
           0.10195240       0.10195240       0.07364502       0.07368346       0.07375232       0.07387419       0.07408471       0.07442911       0.07700685       0.07661854       0.07696883       0.07741873       0.07772257       0.07691208       0.07693151       0.07694164       0.08060013       0.08071756       0.08783387       0.08806994       0.09624899       0.09651961       0.10634730       0.10654830       0.11378680       0.11137370       0.11140320       0.11072960       0.11072110       0.10532820       0.11194940       0.11193770       0.12733280       0.12234930       0.12234970       0.10814030       0.10814480       0.10815090       0.10815780       0.10816500       0.10474940       0.11527760       0.11528400       0.11528920       0.11529320       0.11529620       0.11529830       0.11529990       0.12070950       0.12071030       0.12071080       0.12071120       0.12071140       0.12018790       0.12018800       0.12018800       0.11818630       0.11818640       0.11818640       0.10218970       0.11868550       0.11868560       0.10195240       0.10195240       0.10195240
           0.10195240       0.10195240       0.07365258       0.07369756       0.07377806       0.07392050       0.07416858       0.07458556       0.07731045       0.07704822       0.07714909       0.07739782       0.07755698       0.07698897       0.07696851       0.07697375       0.08037976       0.08759227       0.08798645       0.08876397       0.09587393       0.09637199       0.10622090       0.11357110       0.11380100       0.11141680       0.11144350       0.11075340       0.11072720       0.10532550       0.11191530       0.12726300       0.12724470       0.12226770       0.10808320       0.10808820       0.10809730       0.10810930       0.10812310       0.10813720       0.10991680       0.11525770       0.11526970       0.11527920       0.11528640       0.11529170       0.11529540       0.12070620       0.12070820       0.12070950       0.12071030       0.12071090       0.12071120       0.12018780       0.12018790       0.11818630       0.11818630       0.11818640       0.11818630       0.11868560       0.11868560       0.10195240       0.10195240       0.10195240       0.10195240
           0.10195240       0.10176250       0.07365958       0.07371075       0.07380159       0.07396032       0.07423410       0.07470455       0.07552295       0.07700001       0.07725769       0.07730565       0.07720003       0.07701077       0.07697739       0.07700870       0.08037147       0.08687320       0.08745034       0.08750679       0.09534394       0.10526390       0.10691600       0.11358890       0.11297960       0.11153360       0.11085320       0.11080200       0.11073760       0.10531680       0.12716310       0.12711040       0.12707670       0.12211280       0.10797970       0.10798980       0.10800800       0.10803210       0.10805930       0.10808680       0.11519570       0.11522290       0.11524510       0.11526240       0.11527520       0.11528440       0.11529070       0.12070280       0.12070610       0.12070820       0.12070960       0.12071040       0.12018740       0.12018770       0.11818610       0.11818630       0.11818630       0.11818630       0.11868550       0.11868550       0.10195240       0.10195240       0.10195240       0.10195240       0.10195240
           0.10176250       0.10176250       0.07443330       0.07448065       0.07382483       0.07399835       0.07428255       0.07472551       0.07535241       0.07763251       0.07747976       0.07728348       0.07714836       0.07683413       0.07693144       0.07949919       0.07986961       0.08518683       0.08590128       0.08675629       0.09395189       0.10569480       0.10712930       0.11295900       0.11330030       0.11179160       0.11102710       0.11089180       0.10478560       0.11186290       0.12691830       0.12682000       0.12184340       0.12182040       0.10778470       0.10780530       0.10784170       0.10788940       0.10794290       0.10975300       0.11511170       0.11516280       0.11520350       0.11523440       0.11525690       0.11527260       0.12068930       0.12069750       0.12070290       0.12070630       0.12070850       0.12428680       0.12018700       0.11818580       0.11818600       0.11818620       0.11818630       0.11868550       0.11868550       0.10195240       0.10195240       0.10195240       0.10195240       0.10195240       0.10176250
           0.10176250       0.10176250       0.07443736       0.07449219       0.07459171       0.07476240       0.07436226       0.07480023       0.07529214       0.07564262       0.07777031       0.07716465       0.07667235       0.07704317       0.07833695       0.07866320       0.08251449       0.08292538       0.08285644       0.08593348       0.10213720       0.10613160       0.10808550       0.11379190       0.11400360       0.11197880       0.11134610       0.11104600       0.10486550       0.11171770       0.12645470       0.12627290       0.12131410       0.12127370       0.10742110       0.10746240       0.10753410       0.10762790       0.10773280       0.11485180       0.11496610       0.11506080       0.11513450       0.11518900       0.11522770       0.12065560       0.12067620       0.12068960       0.12069820       0.12070360       0.12428360       0.12018540       0.11818500       0.11818560       0.11818600       0.11801460       0.11868540       0.11868550       0.10195240       0.10195240       0.10195240       0.10195240       0.10176250       0.10176250       0.10176250
           0.10176250       0.10176250       0.06948137       0.07449681       0.07461462       0.07483132       0.07519622       0.07572395       0.07575309       0.07615650       0.07619010       0.07741690       0.07550003       0.07669742       0.07781985       0.07729999       0.08138063       0.08208877       0.07840000       0.08982173       0.10340580       0.10857380       0.11057520       0.11561020       0.11348490       0.11117700       0.11158760       0.10553130       0.12059370       0.11142290       0.12558700       0.11351140       0.12033440       0.12026580       0.10675150       0.10683240       0.10697110       0.10715400       0.10907570       0.11450360       0.11471870       0.11489180       0.11502250       0.11511680       0.12057220       0.12062310       0.12065650       0.12067800       0.12069150       0.12427590       0.12428130       0.11818290       0.11818450       0.14026040       0.11801430       0.11868520       0.11868540       0.10195240       0.10195240       0.10195240       0.10195240       0.10176250       0.10176250       0.10176250       0.10176250
           0.10177420       0.10177420       0.06946722       0.06958129       0.07461043       0.07487500       0.07539029       0.07627939       0.07761866       0.07830419       0.07782799       0.07826149       0.07710346       0.07712488       0.07799532       0.07892373       0.08309812       0.08612132       0.09053742       0.09693173       0.10935860       0.11479540       0.11984480       0.11703250       0.11572330       0.11273520       0.10703910       0.10652020       0.12015980       0.11084130       0.11272560       0.11219130       0.11855760       0.10471940       0.10554250       0.10569470       0.10595540       0.11973350       0.11344290       0.11391140       0.11430980       0.11461940       0.11484590       0.11500510       0.12049190       0.12057450       0.12062790       0.12066140       0.12425660       0.12427010       0.11817800       0.14025360       0.14025750       0.11801350       0.11801410       0.11868510       0.10195240       0.10195240       0.10195240       0.10195240       0.10176250       0.10176250       0.10176250       0.10176250       0.10177420
           0.10177420       0.10177420       0.07027107       0.07035419       0.07053970       0.07098666       0.07185922       0.07364748       0.07938016       0.08154242       0.07978995       0.07768601       0.07672322       0.07834407       0.07815085       0.07933276       0.08333300       0.09232064       0.10183160       0.10748850       0.11977500       0.12757160       0.13484570       0.12220730       0.11903170       0.11519790       0.10948670       0.10751130       0.11130420       0.12256100       0.11073900       0.10981560       0.10279310       0.10262630       0.10342530       0.10369480       0.10415910       0.11751090       0.11205400       0.11293900       0.11365890       0.11419500       0.11457540       0.12017130       0.12037310       0.12050440       0.12058740       0.12420930       0.12424270       0.14022470       0.14024100       0.14025040       0.11801150       0.11801310       0.11868460       0.10195240       0.10195240       0.10195240       0.10176250       0.10176250       0.10176250       0.10176250       0.10177420       0.10177420       0.10177420
           0.10177420       0.10177420       0.07100357       0.07103034       0.07111631       0.07136288       0.07432899       0.07566570       0.07764282       0.08830001       0.08025837       0.07755034       0.07709997       0.07652131       0.07782596       0.07710920       0.08424956       0.09770808       0.11601390       0.11498180       0.12877490       0.15400000       0.14217950       0.12822640       0.13366910       0.12022710       0.12580950       0.10920280       0.11086260       0.10974560       0.10717160       0.10573650       0.09937601       0.09910989       0.09990206       0.10033610       0.11195840       0.11374200       0.10979660       0.11142760       0.11267200       0.11355850       0.11940210       0.11988440       0.12020310       0.12040680       0.12409410       0.12417640       0.14017060       0.14021060       0.14023350       0.11800710       0.11801080       0.11801280       0.10195230       0.10195240       0.11151120       0.10176250       0.10176250       0.10176250       0.10176250       0.10177420       0.10177420       0.10177420       0.10177420
           0.10177420       0.10412590       0.07167588       0.07088619       0.07081847       0.07075386       0.07298726       0.07300144       0.07379841       0.07532159       0.07520646       0.07663673       0.07658128       0.07663677       0.07830997       0.07912841       0.08331692       0.09435475       0.10344330       0.11116660       0.12925790       0.13996400       0.14337360       0.14179690       0.13992250       0.13051930       0.12841860       0.12302040       0.11213170       0.10569210       0.10099030       0.09496602       0.09419844       0.09358984       0.09456723       0.10330620       0.10444020       0.10294680       0.10643520       0.10927030       0.11125920       0.11762000       0.11872570       0.11947820       0.11996980       0.12381570       0.12401730       0.14004110       0.14013840       0.14019370       0.11799670       0.11800560       0.11801020       0.10195230       0.11151070       0.11151110       0.10176260       0.10176260       0.11952600       0.11952610       0.10177420       0.10177420       0.10177420       0.10177420       0.10177420
           0.10412590       0.10412590       0.07160200       0.07454398       0.07413990       0.07341604       0.07215197       0.06962129       0.06651902       0.06433349       0.06820087       0.07339653       0.07691590       0.07922970       0.08024337       0.07963959       0.08174849       0.08906274       0.09265531       0.10649690       0.12566390       0.13899210       0.14546360       0.14898240       0.14889410       0.13852130       0.13135820       0.11964660       0.11145830       0.09960213       0.09077197       0.08875471       0.08819328       0.08992036       0.08957156       0.09383001       0.09273286       0.09585754       0.10228420       0.10653280       0.11965150       0.11609420       0.11777530       0.11892870       0.12315170       0.12364020       0.13973570       0.13996940       0.14010120       0.11797340       0.11799400       0.11800470       0.11801010       0.11151020       0.11151100       0.11952550       0.11952580       0.11952590       0.11952600       0.10177430       0.10177420       0.10177420       0.10177420       0.10177420       0.10412590
           0.10412590       0.10412590       0.07101868       0.07080263       0.07379610       0.07268606       0.07065636       0.06707777       0.06103431       0.05129998       0.06324853       0.07256629       0.08070962       0.08000220       0.08110175       0.07510892       0.08080640       0.08300752       0.07990952       0.10047130       0.12427950       0.15101810       0.14448960       0.15022600       0.17700010       0.14074060       0.12993610       0.12800010       0.11143300       0.09650533       0.07480004       0.08802735       0.08786899       0.07430007       0.08734006       0.08906367       0.07540002       0.09065029       0.10520460       0.11135680       0.12346300       0.11393560       0.11650130       0.12159510       0.12276430       0.13903140       0.13958350       0.13989160       0.11792210       0.11796900       0.11799300       0.11800510       0.11150950       0.11151100       0.11952510       0.11952560       0.11952590       0.11952600       0.10177450       0.10177440       0.10177430       0.10177430       0.10412590       0.10412590       0.10412590
           0.10412590       0.10412590       0.07445709       0.07410628       0.07341487       0.07226555       0.06984728       0.06588145       0.06068543       0.05940955       0.06399809       0.07424926       0.08149510       0.08377787       0.08539632       0.08451574       0.08384178       0.08574428       0.08717145       0.10118120       0.12098040       0.13489340       0.13522880       0.13808620       0.13495660       0.12302360       0.11435580       0.11219190       0.10665950       0.11039530       0.10603870       0.10711030       0.10784930       0.10411120       0.10543750       0.09868564       0.09415928       0.09762120       0.10203670       0.10522590       0.11668310       0.11101700       0.11804470       0.12079400       0.13746520       0.13873410       0.13943350       0.11781490       0.11791750       0.11796980       0.11799560       0.11150930       0.11952210       0.11952450       0.11952550       0.11952580       0.11952600       0.10177500       0.10177470       0.10177450       0.10177430       0.10412590       0.10412590       0.10412590       0.10412590
           0.10412590       0.10598430       0.07410137       0.07377149       0.07343938       0.07207828       0.06956662       0.06917106       0.06219540       0.05867694       0.06695037       0.07924936       0.09009337       0.09475619       0.09763433       0.09467132       0.08974102       0.08731645       0.08442487       0.09615698       0.11787190       0.13722690       0.12953770       0.11547130       0.10269120       0.10133060       0.09801028       0.09721937       0.10783670       0.12468160       0.14281110       0.14286350       0.14155550       0.14114450       0.13131120       0.11771990       0.10668090       0.10303190       0.09830277       0.09749029       0.10873370       0.12175840       0.13062960       0.13619440       0.13698720       0.13849160       0.11760780       0.11781960       0.11792690       0.11888490       0.11950890       0.11952000       0.11952450       0.11952590       0.11952630       0.11952620       0.10177640       0.10177550       0.10177490       0.10177460       0.10412610       0.10412600       0.10412590       0.10412590       0.11008710
           0.10598440       0.10598430       0.06933609       0.07392818       0.07338525       0.07224389       0.07259917       0.06821686       0.06039704       0.04840000       0.06708234       0.08508107       0.10701280       0.10417070       0.10516950       0.10901300       0.09693614       0.08618984       0.07300869       0.09253611       0.11831780       0.16401960       0.12665730       0.10157400       0.07420002       0.08871783       0.08931750       0.07560007       0.10501970       0.14130290       0.20700020       0.17565970       0.17300690       0.20300010       0.15854460       0.13519390       0.11400010       0.11116120       0.09839658       0.07570004       0.10244060       0.11999570       0.13015050       0.11991320       0.13676260       0.11726680       0.11765730       0.11785800       0.11885580       0.11950020       0.11952080       0.11952780       0.11952910       0.11952840       0.11952740       0.10178000       0.10177750       0.10177600       0.10177520       0.10412630       0.10412610       0.11008710       0.11008710       0.11008710       0.10598440
           0.10598430       0.10598440       0.06952485       0.07118139       0.07729076       0.07612381       0.07398751       0.07042604       0.06573991       0.06446573       0.07433320       0.09301992       0.10832000       0.11262470       0.11430150       0.11158040       0.10177840       0.09002292       0.08434165       0.09315350       0.10610100       0.11817010       0.11585100       0.10481380       0.09578829       0.09265844       0.09355070       0.09084284       0.10904760       0.14577820       0.17837790       0.17862480       0.18861890       0.18930050       0.17792570       0.15737250       0.14590350       0.13692080       0.12010260       0.10609950       0.11259770       0.12372830       0.13147740       0.12058840       0.13771710       0.13920610       0.14009270       0.11882290       0.11949920       0.11953480       0.11954380       0.11954160       0.11953640       0.11953180       0.10178950       0.10178280       0.10177890       0.10412810       0.10412700       0.11008740       0.11008720       0.11008710       0.11008710       0.10598440       0.10598440
           0.10598440       0.12859070       0.06765752       0.07443210       0.07454590       0.07469507       0.07591373       0.07384143       0.07212926       0.07380892       0.08558036       0.10405570       0.12193790       0.12980590       0.13009610       0.12650790       0.11550470       0.10016440       0.08984449       0.09364774       0.09687142       0.09998051       0.10884970       0.11680650       0.11805470       0.10888700       0.10105360       0.09618262       0.11349170       0.15294750       0.17987720       0.18202960       0.18878860       0.18940100       0.19716450       0.19696050       0.20295940       0.18121330       0.14624830       0.12803480       0.12648410       0.13028670       0.13400650       0.13578230       0.13766270       0.13903820       0.11833620       0.11952960       0.11959090       0.11959880       0.11958340       0.11956330       0.11954670       0.10181420       0.10179650       0.10178620       0.11009070       0.11008860       0.11008770       0.11008730       0.11008710       0.11008710       0.10598440       0.10598440       0.12859050
           0.12859060       0.12859060       0.06516857       0.06856275       0.06994854       0.07776324       0.07800000       0.07718226       0.07660783       0.07729997       0.09003955       0.11184130       0.15701870       0.14108610       0.14370970       0.14801760       0.12601770       0.10558500       0.07880941       0.09282956       0.09521036       0.07850936       0.10802080       0.13306820       0.15201820       0.12601930       0.10435650       0.07790936       0.11617960       0.15398980       0.22105550       0.17959840       0.17915690       0.19004790       0.19988520       0.23200910       0.31897940       0.22087000       0.17023910       0.14000030       0.13767460       0.13653950       0.13509720       0.13105390       0.13203610       0.11839430       0.11862190       0.11974720       0.11976010       0.11971020       0.11964630       0.11959340       0.10187840       0.11678000       0.10754650       0.11009560       0.11009050       0.11008820       0.11008740       0.11008700       0.11008700       0.10598450       0.11111560       0.12859030       0.12859050
           0.12859060       0.13087670       0.06797151       0.06874544       0.07774297       0.07757046       0.07741290       0.07698604       0.07775791       0.08026877       0.08811254       0.10803760       0.12637530       0.13889050       0.15316660       0.15892510       0.14136790       0.12171020       0.10638260       0.11074690       0.11391230       0.11786340       0.13054150       0.14770030       0.15120890       0.14211600       0.12768740       0.11913110       0.13222660       0.14553770       0.15809590       0.15675830       0.15887210       0.16340630       0.17898190       0.21696980       0.24790650       0.22126350       0.18724040       0.16695780       0.15040300       0.13818870       0.13078330       0.12942620       0.11820810       0.11874330       0.12005640       0.12017390       0.12006950       0.13836410       0.12056550       0.11689370       0.11199800       0.11194890       0.11010730       0.11009440       0.11008900       0.11008700       0.11008650       0.11008660       0.11111520       0.11111540       0.12858970       0.13087620       0.13087650
           0.13087660       0.13103000       0.07141573       0.07179696       0.06985372       0.07347789       0.07452976       0.07804168       0.07892239       0.08096084       0.08496156       0.09607232       0.10418770       0.12645770       0.16578410       0.19740780       0.17618370       0.14370960       0.12675700       0.13530400       0.15426870       0.17063070       0.16689270       0.16658240       0.16803290       0.15799880       0.16007720       0.16555810       0.14691920       0.12824500       0.12471770       0.12241660       0.12427260       0.12377100       0.15696530       0.20375680       0.23537230       0.23087220       0.21628590       0.20024420       0.16755260       0.13925360       0.12306950       0.12157170       0.11789300       0.13509910       0.12257740       0.13834930       0.13846900       0.12902170       0.12879900       0.11214120       0.11200530       0.11194030       0.11010130       0.11008860       0.11008480       0.11008440       0.11111300       0.11111400       0.11111470       0.13087420       0.13087540       0.13087600       0.13102970
           0.13102990       0.13103000       0.07114714       0.07141179       0.07194109       0.07290118       0.07459988       0.07690062       0.07802609       0.07809986       0.08109725       0.08630378       0.07920934       0.11629080       0.17654760       0.33497680       0.20026410       0.15641790       0.12399160       0.15373850       0.18685780       0.28203380       0.20335100       0.17923860       0.19202300       0.16853900       0.17872450       0.25603060       0.15425920       0.11697760       0.09432362       0.10387740       0.10509330       0.08119463       0.13509070       0.19752640       0.26298430       0.23404080       0.22816350       0.27407300       0.18183140       0.13766930       0.10802790       0.12015980       0.12958330       0.12994540       0.13183510       0.13165870       0.12987730       0.11324470       0.11253050       0.11214990       0.11197290       0.11010970       0.11008120       0.11007510       0.11007680       0.11110690       0.11111040       0.13086480       0.13087010       0.13087320       0.13087490       0.13102910       0.13102960
           0.13102980       0.13103000       0.07071507       0.07082212       0.07112894       0.07171803       0.07360066       0.07432903       0.07592618       0.07707909       0.07966206       0.08457700       0.08937636       0.10815390       0.14994420       0.18225450       0.17545110       0.17083750       0.16482370       0.16965320       0.18426710       0.19732920       0.18339770       0.16064090       0.14206760       0.14546190       0.13822030       0.14211810       0.12303710       0.10485340       0.09654425       0.10223090       0.11252560       0.11880820       0.14836440       0.19469380       0.22214630       0.21506820       0.19647040       0.18207910       0.14739760       0.12633720       0.11255820       0.11845040       0.12676100       0.13462150       0.13595110       0.13284710       0.11565020       0.11359150       0.11251400       0.11203120       0.11010190       0.11004230       0.11003840       0.11107220       0.11108820       0.11109980       0.13084610       0.13086010       0.13086790       0.13087220       0.13102770       0.13102890       0.13102950
           0.13102980       0.13103000       0.07038184       0.07025260       0.07027173       0.07036293       0.07077783       0.07308017       0.07491110       0.07646594       0.07725888       0.08277395       0.08482114       0.09264946       0.10837200       0.12053600       0.13861540       0.17754550       0.20697730       0.19167640       0.17067100       0.14650300       0.13215250       0.11988010       0.11247170       0.09841868       0.08210130       0.08279119       0.08372665       0.08413710       0.09162509       0.10259510       0.12601350       0.14630550       0.16700540       0.20218980       0.22198440       0.18677230       0.14702090       0.12512750       0.11716040       0.10860120       0.10051680       0.11241940       0.13206570       0.14693540       0.13276840       0.12251510       0.11644530       0.11339200       0.11208590       0.11165390       0.10988250       0.10991050       0.10565010       0.10567500       0.13073510       0.13079870       0.13083510       0.13085510       0.13086580       0.13102450       0.13102740       0.13102880       0.13102950
           0.13102980       0.11934290       0.06923257       0.06886331       0.06885048       0.06884201       0.06819994       0.07124382       0.07436040       0.07650907       0.07714441       0.07794908       0.07919993       0.08366258       0.08727214       0.07889995       0.11613330       0.17252560       0.31196500       0.19938640       0.13977320       0.13099980       0.10535040       0.09287572       0.10099980       0.07202696       0.05746349       0.04819995       0.05794664       0.07545904       0.07630914       0.10410630       0.14106460       0.18502250       0.18611190       0.20606740       0.27607140       0.17373440       0.12309340       0.07912125       0.09787204       0.09517874       0.07922250       0.11012250       0.13854210       0.17804670       0.14040020       0.12333770       0.11527510       0.11189090       0.11089050       0.10929760       0.10534500       0.10546770       0.10557270       0.13051390       0.13068060       0.13077400       0.13082450       0.13085100       0.13101740       0.13102420       0.13102750       0.13102900       0.13102970