# File generated by Flopy version 3.8.0 on 08/20/2024 at 11:25:55.
BEGIN options
  auxiliary  multiplier
  AUXMULTNAME  multiplier
  BOUNDNAMES
  SAVE_FLOWS
  OBS6  FILEIN  mf6-tv_hist-ny_canal.riv.obs
END options

BEGIN dimensions
  MAXBOUND  10
END dimensions

BEGIN period  1
  1 40 31 7.82208240E+02 1.34743225E+03 7.81598640E+02 5.17367800E-02 nyriv
  1 40 32 7.83640800E+02 1.34743225E+03 7.83031200E+02 1.25463570E-01 nyriv
  1 41 26 7.71540240E+02 1.34743225E+03 7.70930640E+02 5.06378300E-02 nyriv
  1 41 27 7.74435840E+02 1.34743225E+03 7.73826240E+02 8.62700900E-02 nyriv
  1 41 29 7.80227040E+02 1.34743225E+03 7.79617440E+02 1.48077570E-01 nyriv
  1 41 30 7.81842480E+02 1.34743225E+03 7.81232880E+02 1.19507790E-01 nyriv
  1 41 31 7.81842480E+02 1.34743225E+03 7.81232880E+02 1.35745640E-01 nyriv
  1 42 27 7.77514320E+02 1.34743225E+03 7.76904720E+02 6.16353500E-02 nyriv
  1 42 28 7.79129760E+02 1.34743225E+03 7.78520160E+02 1.25205020E-01 nyriv
  1 42 29 7.79129760E+02 1.34743225E+03 7.78520160E+02 9.57203600E-02 nyriv
END period  1

BEGIN period  2
  1 40 31 7.81598640E+02 1.34743225E+03 7.81598640E+02 5.17367800E-02 nyriv
  1 40 32 7.83031200E+02 1.34743225E+03 7.83031200E+02 1.25463570E-01 nyriv
  1 41 26 7.70930640E+02 1.34743225E+03 7.70930640E+02 5.06378300E-02 nyriv
  1 41 27 7.73826240E+02 1.34743225E+03 7.73826240E+02 8.62700900E-02 nyriv
  1 41 29 7.79617440E+02 1.34743225E+03 7.79617440E+02 1.48077570E-01 nyriv
  1 41 30 7.81232880E+02 1.34743225E+03 7.81232880E+02 1.19507790E-01 nyriv
  1 41 31 7.81232880E+02 1.34743225E+03 7.81232880E+02 1.35745640E-01 nyriv
  1 42 27 7.76904720E+02 1.34743225E+03 7.76904720E+02 6.16353500E-02 nyriv
  1 42 28 7.78520160E+02 1.34743225E+03 7.78520160E+02 1.25205020E-01 nyriv
  1 42 29 7.78520160E+02 1.34743225E+03 7.78520160E+02 9.57203600E-02 nyriv
END period  2

BEGIN period  3
  1 40 31 7.82208240E+02 1.34743225E+03 7.81598640E+02 5.17367800E-02 nyriv
  1 40 32 7.83640800E+02 1.34743225E+03 7.83031200E+02 1.25463570E-01 nyriv
  1 41 26 7.71540240E+02 1.34743225E+03 7.70930640E+02 5.06378300E-02 nyriv
  1 41 27 7.74435840E+02 1.34743225E+03 7.73826240E+02 8.62700900E-02 nyriv
  1 41 29 7.80227040E+02 1.34743225E+03 7.79617440E+02 1.48077570E-01 nyriv
  1 41 30 7.81842480E+02 1.34743225E+03 7.81232880E+02 1.19507790E-01 nyriv
  1 41 31 7.81842480E+02 1.34743225E+03 7.81232880E+02 1.35745640E-01 nyriv
  1 42 27 7.77514320E+02 1.34743225E+03 7.76904720E+02 6.16353500E-02 nyriv
  1 42 28 7.79129760E+02 1.34743225E+03 7.78520160E+02 1.25205020E-01 nyriv
  1 42 29 7.79129760E+02 1.34743225E+03 7.78520160E+02 9.57203600E-02 nyriv
END period  3

BEGIN period  4
  1 40 31 7.82208240E+02 1.34743225E+03 7.81598640E+02 5.17367800E-02 nyriv
  1 40 32 7.83640800E+02 1.34743225E+03 7.83031200E+02 1.25463570E-01 nyriv
  1 41 26 7.71540240E+02 1.34743225E+03 7.70930640E+02 5.06378300E-02 nyriv
  1 41 27 7.74435840E+02 1.34743225E+03 7.73826240E+02 8.62700900E-02 nyriv
  1 41 29 7.80227040E+02 1.34743225E+03 7.79617440E+02 1.48077570E-01 nyriv
  1 41 30 7.81842480E+02 1.34743225E+03 7.81232880E+02 1.19507790E-01 nyriv
  1 41 31 7.81842480E+02 1.34743225E+03 7.81232880E+02 1.35745640E-01 nyriv
  1 42 27 7.77514320E+02 1.34743225E+03 7.76904720E+02 6.16353500E-02 nyriv
  1 42 28 7.79129760E+02 1.34743225E+03 7.78520160E+02 1.25205020E-01 nyriv
  1 42 29 7.79129760E+02 1.34743225E+03 7.78520160E+02 9.57203600E-02 nyriv
END period  4

BEGIN period  5
  1 40 31 7.82208240E+02 1.34743225E+03 7.81598640E+02 5.17367800E-02 nyriv
  1 40 32 7.83640800E+02 1.34743225E+03 7.83031200E+02 1.25463570E-01 nyriv
  1 41 26 7.71540240E+02 1.34743225E+03 7.70930640E+02 5.06378300E-02 nyriv
  1 41 27 7.74435840E+02 1.34743225E+03 7.73826240E+02 8.62700900E-02 nyriv
  1 41 29 7.80227040E+02 1.34743225E+03 7.79617440E+02 1.48077570E-01 nyriv
  1 41 30 7.81842480E+02 1.34743225E+03 7.81232880E+02 1.19507790E-01 nyriv
  1 41 31 7.81842480E+02 1.34743225E+03 7.81232880E+02 1.35745640E-01 nyriv
  1 42 27 7.77514320E+02 1.34743225E+03 7.76904720E+02 6.16353500E-02 nyriv
  1 42 28 7.79129760E+02 1.34743225E+03 7.78520160E+02 1.25205020E-01 nyriv
  1 42 29 7.79129760E+02 1.34743225E+03 7.78520160E+02 9.57203600E-02 nyriv
END period  5

BEGIN period  6
  1 40 31 7.82208240E+02 1.34743225E+03 7.81598640E+02 5.17367800E-02 nyriv
  1 40 32 7.83640800E+02 1.34743225E+03 7.83031200E+02 1.25463570E-01 nyriv
  1 41 26 7.71540240E+02 1.34743225E+03 7.70930640E+02 5.06378300E-02 nyriv
  1 41 27 7.74435840E+02 1.34743225E+03 7.73826240E+02 8.62700900E-02 nyriv
  1 41 29 7.80227040E+02 1.34743225E+03 7.79617440E+02 1.48077570E-01 nyriv
  1 41 30 7.81842480E+02 1.34743225E+03 7.81232880E+02 1.19507790E-01 nyriv
  1 41 31 7.81842480E+02 1.34743225E+03 7.81232880E+02 1.35745640E-01 nyriv
  1 42 27 7.77514320E+02 1.34743225E+03 7.76904720E+02 6.16353500E-02 nyriv
  1 42 28 7.79129760E+02 1.34743225E+03 7.78520160E+02 1.25205020E-01 nyriv
  1 42 29 7.79129760E+02 1.34743225E+03 7.78520160E+02 9.57203600E-02 nyriv
END period  6

BEGIN period  7
  1 40 31 7.82208240E+02 1.34743225E+03 7.81598640E+02 5.17367800E-02 nyriv
  1 40 32 7.83640800E+02 1.34743225E+03 7.83031200E+02 1.25463570E-01 nyriv
  1 41 26 7.71540240E+02 1.34743225E+03 7.70930640E+02 5.06378300E-02 nyriv
  1 41 27 7.74435840E+02 1.34743225E+03 7.73826240E+02 8.62700900E-02 nyriv
  1 41 29 7.80227040E+02 1.34743225E+03 7.79617440E+02 1.48077570E-01 nyriv
  1 41 30 7.81842480E+02 1.34743225E+03 7.81232880E+02 1.19507790E-01 nyriv
  1 41 31 7.81842480E+02 1.34743225E+03 7.81232880E+02 1.35745640E-01 nyriv
  1 42 27 7.77514320E+02 1.34743225E+03 7.76904720E+02 6.16353500E-02 nyriv
  1 42 28 7.79129760E+02 1.34743225E+03 7.78520160E+02 1.25205020E-01 nyriv
  1 42 29 7.79129760E+02 1.34743225E+03 7.78520160E+02 9.57203600E-02 nyriv
END period  7

BEGIN period  8
  1 40 31 7.82208240E+02 1.34743225E+03 7.81598640E+02 5.17367800E-02 nyriv
  1 40 32 7.83640800E+02 1.34743225E+03 7.83031200E+02 1.25463570E-01 nyriv
  1 41 26 7.71540240E+02 1.34743225E+03 7.70930640E+02 5.06378300E-02 nyriv
  1 41 27 7.74435840E+02 1.34743225E+03 7.73826240E+02 8.62700900E-02 nyriv
  1 41 29 7.80227040E+02 1.34743225E+03 7.79617440E+02 1.48077570E-01 nyriv
  1 41 30 7.81842480E+02 1.34743225E+03 7.81232880E+02 1.19507790E-01 nyriv
  1 41 31 7.81842480E+02 1.34743225E+03 7.81232880E+02 1.35745640E-01 nyriv
  1 42 27 7.77514320E+02 1.34743225E+03 7.76904720E+02 6.16353500E-02 nyriv
  1 42 28 7.79129760E+02 1.34743225E+03 7.78520160E+02 1.25205020E-01 nyriv
  1 42 29 7.79129760E+02 1.34743225E+03 7.78520160E+02 9.57203600E-02 nyriv
END period  8

BEGIN period  9
  1 40 31 7.82208240E+02 1.34743225E+03 7.81598640E+02 5.17367800E-02 nyriv
  1 40 32 7.83640800E+02 1.34743225E+03 7.83031200E+02 1.25463570E-01 nyriv
  1 41 26 7.71540240E+02 1.34743225E+03 7.70930640E+02 5.06378300E-02 nyriv
  1 41 27 7.74435840E+02 1.34743225E+03 7.73826240E+02 8.62700900E-02 nyriv
  1 41 29 7.80227040E+02 1.34743225E+03 7.79617440E+02 1.48077570E-01 nyriv
  1 41 30 7.81842480E+02 1.34743225E+03 7.81232880E+02 1.19507790E-01 nyriv
  1 41 31 7.81842480E+02 1.34743225E+03 7.81232880E+02 1.35745640E-01 nyriv
  1 42 27 7.77514320E+02 1.34743225E+03 7.76904720E+02 6.16353500E-02 nyriv
  1 42 28 7.79129760E+02 1.34743225E+03 7.78520160E+02 1.25205020E-01 nyriv
  1 42 29 7.79129760E+02 1.34743225E+03 7.78520160E+02 9.57203600E-02 nyriv
END period  9

BEGIN period  10
  1 40 31 7.82208240E+02 1.34743225E+03 7.81598640E+02 5.17367800E-02 nyriv
  1 40 32 7.83640800E+02 1.34743225E+03 7.83031200E+02 1.25463570E-01 nyriv
  1 41 26 7.71540240E+02 1.34743225E+03 7.70930640E+02 5.06378300E-02 nyriv
  1 41 27 7.74435840E+02 1.34743225E+03 7.73826240E+02 8.62700900E-02 nyriv
  1 41 29 7.80227040E+02 1.34743225E+03 7.79617440E+02 1.48077570E-01 nyriv
  1 41 30 7.81842480E+02 1.34743225E+03 7.81232880E+02 1.19507790E-01 nyriv
  1 41 31 7.81842480E+02 1.34743225E+03 7.81232880E+02 1.35745640E-01 nyriv
  1 42 27 7.77514320E+02 1.34743225E+03 7.76904720E+02 6.16353500E-02 nyriv
  1 42 28 7.79129760E+02 1.34743225E+03 7.78520160E+02 1.25205020E-01 nyriv
  1 42 29 7.79129760E+02 1.34743225E+03 7.78520160E+02 9.57203600E-02 nyriv
END period  10

BEGIN period  11
  1 40 31 7.82208240E+02 1.34743225E+03 7.81598640E+02 5.17367800E-02 nyriv
  1 40 32 7.83640800E+02 1.34743225E+03 7.83031200E+02 1.25463570E-01 nyriv
  1 41 26 7.71540240E+02 1.34743225E+03 7.70930640E+02 5.06378300E-02 nyriv
  1 41 27 7.74435840E+02 1.34743225E+03 7.73826240E+02 8.62700900E-02 nyriv
  1 41 29 7.80227040E+02 1.34743225E+03 7.79617440E+02 1.48077570E-01 nyriv
  1 41 30 7.81842480E+02 1.34743225E+03 7.81232880E+02 1.19507790E-01 nyriv
  1 41 31 7.81842480E+02 1.34743225E+03 7.81232880E+02 1.35745640E-01 nyriv
  1 42 27 7.77514320E+02 1.34743225E+03 7.76904720E+02 6.16353500E-02 nyriv
  1 42 28 7.79129760E+02 1.34743225E+03 7.78520160E+02 1.25205020E-01 nyriv
  1 42 29 7.79129760E+02 1.34743225E+03 7.78520160E+02 9.57203600E-02 nyriv
END period  11

BEGIN period  12
  1 40 31 7.81598640E+02 1.34743225E+03 7.81598640E+02 5.17367800E-02 nyriv
  1 40 32 7.83031200E+02 1.34743225E+03 7.83031200E+02 1.25463570E-01 nyriv
  1 41 26 7.70930640E+02 1.34743225E+03 7.70930640E+02 5.06378300E-02 nyriv
  1 41 27 7.73826240E+02 1.34743225E+03 7.73826240E+02 8.62700900E-02 nyriv
  1 41 29 7.79617440E+02 1.34743225E+03 7.79617440E+02 1.48077570E-01 nyriv
  1 41 30 7.81232880E+02 1.34743225E+03 7.81232880E+02 1.19507790E-01 nyriv
  1 41 31 7.81232880E+02 1.34743225E+03 7.81232880E+02 1.35745640E-01 nyriv
  1 42 27 7.76904720E+02 1.34743225E+03 7.76904720E+02 6.16353500E-02 nyriv
  1 42 28 7.78520160E+02 1.34743225E+03 7.78520160E+02 1.25205020E-01 nyriv
  1 42 29 7.78520160E+02 1.34743225E+03 7.78520160E+02 9.57203600E-02 nyriv
END period  12

BEGIN period  13
  1 40 31 7.81598640E+02 1.34743225E+03 7.81598640E+02 5.17367800E-02 nyriv
  1 40 32 7.83031200E+02 1.34743225E+03 7.83031200E+02 1.25463570E-01 nyriv
  1 41 26 7.70930640E+02 1.34743225E+03 7.70930640E+02 5.06378300E-02 nyriv
  1 41 27 7.73826240E+02 1.34743225E+03 7.73826240E+02 8.62700900E-02 nyriv
  1 41 29 7.79617440E+02 1.34743225E+03 7.79617440E+02 1.48077570E-01 nyriv
  1 41 30 7.81232880E+02 1.34743225E+03 7.81232880E+02 1.19507790E-01 nyriv
  1 41 31 7.81232880E+02 1.34743225E+03 7.81232880E+02 1.35745640E-01 nyriv
  1 42 27 7.76904720E+02 1.34743225E+03 7.76904720E+02 6.16353500E-02 nyriv
  1 42 28 7.78520160E+02 1.34743225E+03 7.78520160E+02 1.25205020E-01 nyriv
  1 42 29 7.78520160E+02 1.34743225E+03 7.78520160E+02 9.57203600E-02 nyriv
END period  13

BEGIN period  14
  1 40 31 7.81598640E+02 1.34743225E+03 7.81598640E+02 5.17367800E-02 nyriv
  1 40 32 7.83031200E+02 1.34743225E+03 7.83031200E+02 1.25463570E-01 nyriv
  1 41 26 7.70930640E+02 1.34743225E+03 7.70930640E+02 5.06378300E-02 nyriv
  1 41 27 7.73826240E+02 1.34743225E+03 7.73826240E+02 8.62700900E-02 nyriv
  1 41 29 7.79617440E+02 1.34743225E+03 7.79617440E+02 1.48077570E-01 nyriv
  1 41 30 7.81232880E+02 1.34743225E+03 7.81232880E+02 1.19507790E-01 nyriv
  1 41 31 7.81232880E+02 1.34743225E+03 7.81232880E+02 1.35745640E-01 nyriv
  1 42 27 7.76904720E+02 1.34743225E+03 7.76904720E+02 6.16353500E-02 nyriv
  1 42 28 7.78520160E+02 1.34743225E+03 7.78520160E+02 1.25205020E-01 nyriv
  1 42 29 7.78520160E+02 1.34743225E+03 7.78520160E+02 9.57203600E-02 nyriv
END period  14

BEGIN period  15
  1 40 31 7.82208240E+02 1.34743225E+03 7.81598640E+02 5.17367800E-02 nyriv
  1 40 32 7.83640800E+02 1.34743225E+03 7.83031200E+02 1.25463570E-01 nyriv
  1 41 26 7.71540240E+02 1.34743225E+03 7.70930640E+02 5.06378300E-02 nyriv
  1 41 27 7.74435840E+02 1.34743225E+03 7.73826240E+02 8.62700900E-02 nyriv
  1 41 29 7.80227040E+02 1.34743225E+03 7.79617440E+02 1.48077570E-01 nyriv
  1 41 30 7.81842480E+02 1.34743225E+03 7.81232880E+02 1.19507790E-01 nyriv
  1 41 31 7.81842480E+02 1.34743225E+03 7.81232880E+02 1.35745640E-01 nyriv
  1 42 27 7.77514320E+02 1.34743225E+03 7.76904720E+02 6.16353500E-02 nyriv
  1 42 28 7.79129760E+02 1.34743225E+03 7.78520160E+02 1.25205020E-01 nyriv
  1 42 29 7.79129760E+02 1.34743225E+03 7.78520160E+02 9.57203600E-02 nyriv
END period  15

BEGIN period  16
  1 40 31 7.81598640E+02 1.34743225E+03 7.81598640E+02 5.17367800E-02 nyriv
  1 40 32 7.83031200E+02 1.34743225E+03 7.83031200E+02 1.25463570E-01 nyriv
  1 41 26 7.70930640E+02 1.34743225E+03 7.70930640E+02 5.06378300E-02 nyriv
  1 41 27 7.73826240E+02 1.34743225E+03 7.73826240E+02 8.62700900E-02 nyriv
  1 41 29 7.79617440E+02 1.34743225E+03 7.79617440E+02 1.48077570E-01 nyriv
  1 41 30 7.81232880E+02 1.34743225E+03 7.81232880E+02 1.19507790E-01 nyriv
  1 41 31 7.81232880E+02 1.34743225E+03 7.81232880E+02 1.35745640E-01 nyriv
  1 42 27 7.76904720E+02 1.34743225E+03 7.76904720E+02 6.16353500E-02 nyriv
  1 42 28 7.78520160E+02 1.34743225E+03 7.78520160E+02 1.25205020E-01 nyriv
  1 42 29 7.78520160E+02 1.34743225E+03 7.78520160E+02 9.57203600E-02 nyriv
END period  16

BEGIN period  17
  1 40 31 7.82208240E+02 1.34743225E+03 7.81598640E+02 5.17367800E-02 nyriv
  1 40 32 7.83640800E+02 1.34743225E+03 7.83031200E+02 1.25463570E-01 nyriv
  1 41 26 7.71540240E+02 1.34743225E+03 7.70930640E+02 5.06378300E-02 nyriv
  1 41 27 7.74435840E+02 1.34743225E+03 7.73826240E+02 8.62700900E-02 nyriv
  1 41 29 7.80227040E+02 1.34743225E+03 7.79617440E+02 1.48077570E-01 nyriv
  1 41 30 7.81842480E+02 1.34743225E+03 7.81232880E+02 1.19507790E-01 nyriv
  1 41 31 7.81842480E+02 1.34743225E+03 7.81232880E+02 1.35745640E-01 nyriv
  1 42 27 7.77514320E+02 1.34743225E+03 7.76904720E+02 6.16353500E-02 nyriv
  1 42 28 7.79129760E+02 1.34743225E+03 7.78520160E+02 1.25205020E-01 nyriv
  1 42 29 7.79129760E+02 1.34743225E+03 7.78520160E+02 9.57203600E-02 nyriv
END period  17

BEGIN period  18
  1 40 31 7.82208240E+02 1.34743225E+03 7.81598640E+02 5.17367800E-02 nyriv
  1 40 32 7.83640800E+02 1.34743225E+03 7.83031200E+02 1.25463570E-01 nyriv
  1 41 26 7.71540240E+02 1.34743225E+03 7.70930640E+02 5.06378300E-02 nyriv
  1 41 27 7.74435840E+02 1.34743225E+03 7.73826240E+02 8.62700900E-02 nyriv
  1 41 29 7.80227040E+02 1.34743225E+03 7.79617440E+02 1.48077570E-01 nyriv
  1 41 30 7.81842480E+02 1.34743225E+03 7.81232880E+02 1.19507790E-01 nyriv
  1 41 31 7.81842480E+02 1.34743225E+03 7.81232880E+02 1.35745640E-01 nyriv
  1 42 27 7.77514320E+02 1.34743225E+03 7.76904720E+02 6.16353500E-02 nyriv
  1 42 28 7.79129760E+02 1.34743225E+03 7.78520160E+02 1.25205020E-01 nyriv
  1 42 29 7.79129760E+02 1.34743225E+03 7.78520160E+02 9.57203600E-02 nyriv
END period  18

BEGIN period  19
  1 40 31 7.82208240E+02 1.34743225E+03 7.81598640E+02 5.17367800E-02 nyriv
  1 40 32 7.83640800E+02 1.34743225E+03 7.83031200E+02 1.25463570E-01 nyriv
  1 41 26 7.71540240E+02 1.34743225E+03 7.70930640E+02 5.06378300E-02 nyriv
  1 41 27 7.74435840E+02 1.34743225E+03 7.73826240E+02 8.62700900E-02 nyriv
  1 41 29 7.80227040E+02 1.34743225E+03 7.79617440E+02 1.48077570E-01 nyriv
  1 41 30 7.81842480E+02 1.34743225E+03 7.81232880E+02 1.19507790E-01 nyriv
  1 41 31 7.81842480E+02 1.34743225E+03 7.81232880E+02 1.35745640E-01 nyriv
  1 42 27 7.77514320E+02 1.34743225E+03 7.76904720E+02 6.16353500E-02 nyriv
  1 42 28 7.79129760E+02 1.34743225E+03 7.78520160E+02 1.25205020E-01 nyriv
  1 42 29 7.79129760E+02 1.34743225E+03 7.78520160E+02 9.57203600E-02 nyriv
END period  19

BEGIN period  20
  1 40 31 7.82208240E+02 1.34743225E+03 7.81598640E+02 5.17367800E-02 nyriv
  1 40 32 7.83640800E+02 1.34743225E+03 7.83031200E+02 1.25463570E-01 nyriv
  1 41 26 7.71540240E+02 1.34743225E+03 7.70930640E+02 5.06378300E-02 nyriv
  1 41 27 7.74435840E+02 1.34743225E+03 7.73826240E+02 8.62700900E-02 nyriv
  1 41 29 7.80227040E+02 1.34743225E+03 7.79617440E+02 1.48077570E-01 nyriv
  1 41 30 7.81842480E+02 1.34743225E+03 7.81232880E+02 1.19507790E-01 nyriv
  1 41 31 7.81842480E+02 1.34743225E+03 7.81232880E+02 1.35745640E-01 nyriv
  1 42 27 7.77514320E+02 1.34743225E+03 7.76904720E+02 6.16353500E-02 nyriv
  1 42 28 7.79129760E+02 1.34743225E+03 7.78520160E+02 1.25205020E-01 nyriv
  1 42 29 7.79129760E+02 1.34743225E+03 7.78520160E+02 9.57203600E-02 nyriv
END period  20

BEGIN period  21
  1 40 31 7.82208240E+02 1.34743225E+03 7.81598640E+02 5.17367800E-02 nyriv
  1 40 32 7.83640800E+02 1.34743225E+03 7.83031200E+02 1.25463570E-01 nyriv
  1 41 26 7.71540240E+02 1.34743225E+03 7.70930640E+02 5.06378300E-02 nyriv
  1 41 27 7.74435840E+02 1.34743225E+03 7.73826240E+02 8.62700900E-02 nyriv
  1 41 29 7.80227040E+02 1.34743225E+03 7.79617440E+02 1.48077570E-01 nyriv
  1 41 30 7.81842480E+02 1.34743225E+03 7.81232880E+02 1.19507790E-01 nyriv
  1 41 31 7.81842480E+02 1.34743225E+03 7.81232880E+02 1.35745640E-01 nyriv
  1 42 27 7.77514320E+02 1.34743225E+03 7.76904720E+02 6.16353500E-02 nyriv
  1 42 28 7.79129760E+02 1.34743225E+03 7.78520160E+02 1.25205020E-01 nyriv
  1 42 29 7.79129760E+02 1.34743225E+03 7.78520160E+02 9.57203600E-02 nyriv
END period  21

BEGIN period  22
  1 40 31 7.82208240E+02 1.34743225E+03 7.81598640E+02 5.17367800E-02 nyriv
  1 40 32 7.83640800E+02 1.34743225E+03 7.83031200E+02 1.25463570E-01 nyriv
  1 41 26 7.71540240E+02 1.34743225E+03 7.70930640E+02 5.06378300E-02 nyriv
  1 41 27 7.74435840E+02 1.34743225E+03 7.73826240E+02 8.62700900E-02 nyriv
  1 41 29 7.80227040E+02 1.34743225E+03 7.79617440E+02 1.48077570E-01 nyriv
  1 41 30 7.81842480E+02 1.34743225E+03 7.81232880E+02 1.19507790E-01 nyriv
  1 41 31 7.81842480E+02 1.34743225E+03 7.81232880E+02 1.35745640E-01 nyriv
  1 42 27 7.77514320E+02 1.34743225E+03 7.76904720E+02 6.16353500E-02 nyriv
  1 42 28 7.79129760E+02 1.34743225E+03 7.78520160E+02 1.25205020E-01 nyriv
  1 42 29 7.79129760E+02 1.34743225E+03 7.78520160E+02 9.57203600E-02 nyriv
END period  22

BEGIN period  23
  1 40 31 7.82208240E+02 1.34743225E+03 7.81598640E+02 5.17367800E-02 nyriv
  1 40 32 7.83640800E+02 1.34743225E+03 7.83031200E+02 1.25463570E-01 nyriv
  1 41 26 7.71540240E+02 1.34743225E+03 7.70930640E+02 5.06378300E-02 nyriv
  1 41 27 7.74435840E+02 1.34743225E+03 7.73826240E+02 8.62700900E-02 nyriv
  1 41 29 7.80227040E+02 1.34743225E+03 7.79617440E+02 1.48077570E-01 nyriv
  1 41 30 7.81842480E+02 1.34743225E+03 7.81232880E+02 1.19507790E-01 nyriv
  1 41 31 7.81842480E+02 1.34743225E+03 7.81232880E+02 1.35745640E-01 nyriv
  1 42 27 7.77514320E+02 1.34743225E+03 7.76904720E+02 6.16353500E-02 nyriv
  1 42 28 7.79129760E+02 1.34743225E+03 7.78520160E+02 1.25205020E-01 nyriv
  1 42 29 7.79129760E+02 1.34743225E+03 7.78520160E+02 9.57203600E-02 nyriv
END period  23

BEGIN period  24
  1 40 31 7.81598640E+02 1.34743225E+03 7.81598640E+02 5.17367800E-02 nyriv
  1 40 32 7.83031200E+02 1.34743225E+03 7.83031200E+02 1.25463570E-01 nyriv
  1 41 26 7.70930640E+02 1.34743225E+03 7.70930640E+02 5.06378300E-02 nyriv
  1 41 27 7.73826240E+02 1.34743225E+03 7.73826240E+02 8.62700900E-02 nyriv
  1 41 29 7.79617440E+02 1.34743225E+03 7.79617440E+02 1.48077570E-01 nyriv
  1 41 30 7.81232880E+02 1.34743225E+03 7.81232880E+02 1.19507790E-01 nyriv
  1 41 31 7.81232880E+02 1.34743225E+03 7.81232880E+02 1.35745640E-01 nyriv
  1 42 27 7.76904720E+02 1.34743225E+03 7.76904720E+02 6.16353500E-02 nyriv
  1 42 28 7.78520160E+02 1.34743225E+03 7.78520160E+02 1.25205020E-01 nyriv
  1 42 29 7.78520160E+02 1.34743225E+03 7.78520160E+02 9.57203600E-02 nyriv
END period  24

BEGIN period  25
  1 40 31 7.81598640E+02 1.34743225E+03 7.81598640E+02 5.17367800E-02 nyriv
  1 40 32 7.83031200E+02 1.34743225E+03 7.83031200E+02 1.25463570E-01 nyriv
  1 41 26 7.70930640E+02 1.34743225E+03 7.70930640E+02 5.06378300E-02 nyriv
  1 41 27 7.73826240E+02 1.34743225E+03 7.73826240E+02 8.62700900E-02 nyriv
  1 41 29 7.79617440E+02 1.34743225E+03 7.79617440E+02 1.48077570E-01 nyriv
  1 41 30 7.81232880E+02 1.34743225E+03 7.81232880E+02 1.19507790E-01 nyriv
  1 41 31 7.81232880E+02 1.34743225E+03 7.81232880E+02 1.35745640E-01 nyriv
  1 42 27 7.76904720E+02 1.34743225E+03 7.76904720E+02 6.16353500E-02 nyriv
  1 42 28 7.78520160E+02 1.34743225E+03 7.78520160E+02 1.25205020E-01 nyriv
  1 42 29 7.78520160E+02 1.34743225E+03 7.78520160E+02 9.57203600E-02 nyriv
END period  25

BEGIN period  26
  1 40 31 7.81598640E+02 1.34743225E+03 7.81598640E+02 5.17367800E-02 nyriv
  1 40 32 7.83031200E+02 1.34743225E+03 7.83031200E+02 1.25463570E-01 nyriv
  1 41 26 7.70930640E+02 1.34743225E+03 7.70930640E+02 5.06378300E-02 nyriv
  1 41 27 7.73826240E+02 1.34743225E+03 7.73826240E+02 8.62700900E-02 nyriv
  1 41 29 7.79617440E+02 1.34743225E+03 7.79617440E+02 1.48077570E-01 nyriv
  1 41 30 7.81232880E+02 1.34743225E+03 7.81232880E+02 1.19507790E-01 nyriv
  1 41 31 7.81232880E+02 1.34743225E+03 7.81232880E+02 1.35745640E-01 nyriv
  1 42 27 7.76904720E+02 1.34743225E+03 7.76904720E+02 6.16353500E-02 nyriv
  1 42 28 7.78520160E+02 1.34743225E+03 7.78520160E+02 1.25205020E-01 nyriv
  1 42 29 7.78520160E+02 1.34743225E+03 7.78520160E+02 9.57203600E-02 nyriv
END period  26

BEGIN period  27
  1 40 31 7.81598640E+02 1.34743225E+03 7.81598640E+02 5.17367800E-02 nyriv
  1 40 32 7.83031200E+02 1.34743225E+03 7.83031200E+02 1.25463570E-01 nyriv
  1 41 26 7.70930640E+02 1.34743225E+03 7.70930640E+02 5.06378300E-02 nyriv
  1 41 27 7.73826240E+02 1.34743225E+03 7.73826240E+02 8.62700900E-02 nyriv
  1 41 29 7.79617440E+02 1.34743225E+03 7.79617440E+02 1.48077570E-01 nyriv
  1 41 30 7.81232880E+02 1.34743225E+03 7.81232880E+02 1.19507790E-01 nyriv
  1 41 31 7.81232880E+02 1.34743225E+03 7.81232880E+02 1.35745640E-01 nyriv
  1 42 27 7.76904720E+02 1.34743225E+03 7.76904720E+02 6.16353500E-02 nyriv
  1 42 28 7.78520160E+02 1.34743225E+03 7.78520160E+02 1.25205020E-01 nyriv
  1 42 29 7.78520160E+02 1.34743225E+03 7.78520160E+02 9.57203600E-02 nyriv
END period  27

BEGIN period  28
  1 40 31 7.82208240E+02 1.34743225E+03 7.81598640E+02 5.17367800E-02 nyriv
  1 40 32 7.83640800E+02 1.34743225E+03 7.83031200E+02 1.25463570E-01 nyriv
  1 41 26 7.71540240E+02 1.34743225E+03 7.70930640E+02 5.06378300E-02 nyriv
  1 41 27 7.74435840E+02 1.34743225E+03 7.73826240E+02 8.62700900E-02 nyriv
  1 41 29 7.80227040E+02 1.34743225E+03 7.79617440E+02 1.48077570E-01 nyriv
  1 41 30 7.81842480E+02 1.34743225E+03 7.81232880E+02 1.19507790E-01 nyriv
  1 41 31 7.81842480E+02 1.34743225E+03 7.81232880E+02 1.35745640E-01 nyriv
  1 42 27 7.77514320E+02 1.34743225E+03 7.76904720E+02 6.16353500E-02 nyriv
  1 42 28 7.79129760E+02 1.34743225E+03 7.78520160E+02 1.25205020E-01 nyriv
  1 42 29 7.79129760E+02 1.34743225E+03 7.78520160E+02 9.57203600E-02 nyriv
END period  28

BEGIN period  29
  1 40 31 7.82208240E+02 1.34743225E+03 7.81598640E+02 5.17367800E-02 nyriv
  1 40 32 7.83640800E+02 1.34743225E+03 7.83031200E+02 1.25463570E-01 nyriv
  1 41 26 7.71540240E+02 1.34743225E+03 7.70930640E+02 5.06378300E-02 nyriv
  1 41 27 7.74435840E+02 1.34743225E+03 7.73826240E+02 8.62700900E-02 nyriv
  1 41 29 7.80227040E+02 1.34743225E+03 7.79617440E+02 1.48077570E-01 nyriv
  1 41 30 7.81842480E+02 1.34743225E+03 7.81232880E+02 1.19507790E-01 nyriv
  1 41 31 7.81842480E+02 1.34743225E+03 7.81232880E+02 1.35745640E-01 nyriv
  1 42 27 7.77514320E+02 1.34743225E+03 7.76904720E+02 6.16353500E-02 nyriv
  1 42 28 7.79129760E+02 1.34743225E+03 7.78520160E+02 1.25205020E-01 nyriv
  1 42 29 7.79129760E+02 1.34743225E+03 7.78520160E+02 9.57203600E-02 nyriv
END period  29

BEGIN period  30
  1 40 31 7.82208240E+02 1.34743225E+03 7.81598640E+02 5.17367800E-02 nyriv
  1 40 32 7.83640800E+02 1.34743225E+03 7.83031200E+02 1.25463570E-01 nyriv
  1 41 26 7.71540240E+02 1.34743225E+03 7.70930640E+02 5.06378300E-02 nyriv
  1 41 27 7.74435840E+02 1.34743225E+03 7.73826240E+02 8.62700900E-02 nyriv
  1 41 29 7.80227040E+02 1.34743225E+03 7.79617440E+02 1.48077570E-01 nyriv
  1 41 30 7.81842480E+02 1.34743225E+03 7.81232880E+02 1.19507790E-01 nyriv
  1 41 31 7.81842480E+02 1.34743225E+03 7.81232880E+02 1.35745640E-01 nyriv
  1 42 27 7.77514320E+02 1.34743225E+03 7.76904720E+02 6.16353500E-02 nyriv
  1 42 28 7.79129760E+02 1.34743225E+03 7.78520160E+02 1.25205020E-01 nyriv
  1 42 29 7.79129760E+02 1.34743225E+03 7.78520160E+02 9.57203600E-02 nyriv
END period  30

BEGIN period  31
  1 40 31 7.82208240E+02 1.34743225E+03 7.81598640E+02 5.17367800E-02 nyriv
  1 40 32 7.83640800E+02 1.34743225E+03 7.83031200E+02 1.25463570E-01 nyriv
  1 41 26 7.71540240E+02 1.34743225E+03 7.70930640E+02 5.06378300E-02 nyriv
  1 41 27 7.74435840E+02 1.34743225E+03 7.73826240E+02 8.62700900E-02 nyriv
  1 41 29 7.80227040E+02 1.34743225E+03 7.79617440E+02 1.48077570E-01 nyriv
  1 41 30 7.81842480E+02 1.34743225E+03 7.81232880E+02 1.19507790E-01 nyriv
  1 41 31 7.81842480E+02 1.34743225E+03 7.81232880E+02 1.35745640E-01 nyriv
  1 42 27 7.77514320E+02 1.34743225E+03 7.76904720E+02 6.16353500E-02 nyriv
  1 42 28 7.79129760E+02 1.34743225E+03 7.78520160E+02 1.25205020E-01 nyriv
  1 42 29 7.79129760E+02 1.34743225E+03 7.78520160E+02 9.57203600E-02 nyriv
END period  31

BEGIN period  32
  1 40 31 7.82208240E+02 1.34743225E+03 7.81598640E+02 5.17367800E-02 nyriv
  1 40 32 7.83640800E+02 1.34743225E+03 7.83031200E+02 1.25463570E-01 nyriv
  1 41 26 7.71540240E+02 1.34743225E+03 7.70930640E+02 5.06378300E-02 nyriv
  1 41 27 7.74435840E+02 1.34743225E+03 7.73826240E+02 8.62700900E-02 nyriv
  1 41 29 7.80227040E+02 1.34743225E+03 7.79617440E+02 1.48077570E-01 nyriv
  1 41 30 7.81842480E+02 1.34743225E+03 7.81232880E+02 1.19507790E-01 nyriv
  1 41 31 7.81842480E+02 1.34743225E+03 7.81232880E+02 1.35745640E-01 nyriv
  1 42 27 7.77514320E+02 1.34743225E+03 7.76904720E+02 6.16353500E-02 nyriv
  1 42 28 7.79129760E+02 1.34743225E+03 7.78520160E+02 1.25205020E-01 nyriv
  1 42 29 7.79129760E+02 1.34743225E+03 7.78520160E+02 9.57203600E-02 nyriv
END period  32

BEGIN period  33
  1 40 31 7.82208240E+02 1.34743225E+03 7.81598640E+02 5.17367800E-02 nyriv
  1 40 32 7.83640800E+02 1.34743225E+03 7.83031200E+02 1.25463570E-01 nyriv
  1 41 26 7.71540240E+02 1.34743225E+03 7.70930640E+02 5.06378300E-02 nyriv
  1 41 27 7.74435840E+02 1.34743225E+03 7.73826240E+02 8.62700900E-02 nyriv
  1 41 29 7.80227040E+02 1.34743225E+03 7.79617440E+02 1.48077570E-01 nyriv
  1 41 30 7.81842480E+02 1.34743225E+03 7.81232880E+02 1.19507790E-01 nyriv
  1 41 31 7.81842480E+02 1.34743225E+03 7.81232880E+02 1.35745640E-01 nyriv
  1 42 27 7.77514320E+02 1.34743225E+03 7.76904720E+02 6.16353500E-02 nyriv
  1 42 28 7.79129760E+02 1.34743225E+03 7.78520160E+02 1.25205020E-01 nyriv
  1 42 29 7.79129760E+02 1.34743225E+03 7.78520160E+02 9.57203600E-02 nyriv
END period  33

BEGIN period  34
  1 40 31 7.82208240E+02 1.34743225E+03 7.81598640E+02 5.17367800E-02 nyriv
  1 40 32 7.83640800E+02 1.34743225E+03 7.83031200E+02 1.25463570E-01 nyriv
  1 41 26 7.71540240E+02 1.34743225E+03 7.70930640E+02 5.06378300E-02 nyriv
  1 41 27 7.74435840E+02 1.34743225E+03 7.73826240E+02 8.62700900E-02 nyriv
  1 41 29 7.80227040E+02 1.34743225E+03 7.79617440E+02 1.48077570E-01 nyriv
  1 41 30 7.81842480E+02 1.34743225E+03 7.81232880E+02 1.19507790E-01 nyriv
  1 41 31 7.81842480E+02 1.34743225E+03 7.81232880E+02 1.35745640E-01 nyriv
  1 42 27 7.77514320E+02 1.34743225E+03 7.76904720E+02 6.16353500E-02 nyriv
  1 42 28 7.79129760E+02 1.34743225E+03 7.78520160E+02 1.25205020E-01 nyriv
  1 42 29 7.79129760E+02 1.34743225E+03 7.78520160E+02 9.57203600E-02 nyriv
END period  34

BEGIN period  35
  1 40 31 7.81598640E+02 1.34743225E+03 7.81598640E+02 5.17367800E-02 nyriv
  1 40 32 7.83031200E+02 1.34743225E+03 7.83031200E+02 1.25463570E-01 nyriv
  1 41 26 7.70930640E+02 1.34743225E+03 7.70930640E+02 5.06378300E-02 nyriv
  1 41 27 7.73826240E+02 1.34743225E+03 7.73826240E+02 8.62700900E-02 nyriv
  1 41 29 7.79617440E+02 1.34743225E+03 7.79617440E+02 1.48077570E-01 nyriv
  1 41 30 7.81232880E+02 1.34743225E+03 7.81232880E+02 1.19507790E-01 nyriv
  1 41 31 7.81232880E+02 1.34743225E+03 7.81232880E+02 1.35745640E-01 nyriv
  1 42 27 7.76904720E+02 1.34743225E+03 7.76904720E+02 6.16353500E-02 nyriv
  1 42 28 7.78520160E+02 1.34743225E+03 7.78520160E+02 1.25205020E-01 nyriv
  1 42 29 7.78520160E+02 1.34743225E+03 7.78520160E+02 9.57203600E-02 nyriv
END period  35

BEGIN period  36
  1 40 31 7.81598640E+02 1.34743225E+03 7.81598640E+02 5.17367800E-02 nyriv
  1 40 32 7.83031200E+02 1.34743225E+03 7.83031200E+02 1.25463570E-01 nyriv
  1 41 26 7.70930640E+02 1.34743225E+03 7.70930640E+02 5.06378300E-02 nyriv
  1 41 27 7.73826240E+02 1.34743225E+03 7.73826240E+02 8.62700900E-02 nyriv
  1 41 29 7.79617440E+02 1.34743225E+03 7.79617440E+02 1.48077570E-01 nyriv
  1 41 30 7.81232880E+02 1.34743225E+03 7.81232880E+02 1.19507790E-01 nyriv
  1 41 31 7.81232880E+02 1.34743225E+03 7.81232880E+02 1.35745640E-01 nyriv
  1 42 27 7.76904720E+02 1.34743225E+03 7.76904720E+02 6.16353500E-02 nyriv
  1 42 28 7.78520160E+02 1.34743225E+03 7.78520160E+02 1.25205020E-01 nyriv
  1 42 29 7.78520160E+02 1.34743225E+03 7.78520160E+02 9.57203600E-02 nyriv
END period  36

BEGIN period  37
  1 40 31 7.81598640E+02 1.34743225E+03 7.81598640E+02 5.17367800E-02 nyriv
  1 40 32 7.83031200E+02 1.34743225E+03 7.83031200E+02 1.25463570E-01 nyriv
  1 41 26 7.70930640E+02 1.34743225E+03 7.70930640E+02 5.06378300E-02 nyriv
  1 41 27 7.73826240E+02 1.34743225E+03 7.73826240E+02 8.62700900E-02 nyriv
  1 41 29 7.79617440E+02 1.34743225E+03 7.79617440E+02 1.48077570E-01 nyriv
  1 41 30 7.81232880E+02 1.34743225E+03 7.81232880E+02 1.19507790E-01 nyriv
  1 41 31 7.81232880E+02 1.34743225E+03 7.81232880E+02 1.35745640E-01 nyriv
  1 42 27 7.76904720E+02 1.34743225E+03 7.76904720E+02 6.16353500E-02 nyriv
  1 42 28 7.78520160E+02 1.34743225E+03 7.78520160E+02 1.25205020E-01 nyriv
  1 42 29 7.78520160E+02 1.34743225E+03 7.78520160E+02 9.57203600E-02 nyriv
END period  37

BEGIN period  38
  1 40 31 7.81598640E+02 1.34743225E+03 7.81598640E+02 5.17367800E-02 nyriv
  1 40 32 7.83031200E+02 1.34743225E+03 7.83031200E+02 1.25463570E-01 nyriv
  1 41 26 7.70930640E+02 1.34743225E+03 7.70930640E+02 5.06378300E-02 nyriv
  1 41 27 7.73826240E+02 1.34743225E+03 7.73826240E+02 8.62700900E-02 nyriv
  1 41 29 7.79617440E+02 1.34743225E+03 7.79617440E+02 1.48077570E-01 nyriv