# File generated by Flopy version 3.8.0 on 08/20/2024 at 11:25:59.
BEGIN options
  auxiliary  multiplier
  AUXMULTNAME  multiplier
  BOUNDNAMES
  SAVE_FLOWS
  OBS6  FILEIN  mf6-tv_hist-lake_lowell.ghb.obs
END options

BEGIN dimensions
  MAXBOUND  33
END dimensions

BEGIN period  1
  1 36 20 7.68583680E+02 8.30303733E+02 1.56947350E-01 lowell
  1 36 21 7.68583680E+02 8.30303733E+02 2.57967170E-01 lowell
  1 36 22 7.68583680E+02 8.30303733E+02 3.67831700E-02 lowell
  1 37 19 7.68583680E+02 8.30303733E+02 2.24301110E-01 lowell
  1 37 20 7.68583680E+02 8.30303733E+02 9.65389090E-01 lowell
  1 37 21 7.68583680E+02 8.30303733E+02 9.99329100E-01 lowell
  1 37 22 7.68583680E+02 8.30303733E+02 5.24244420E-01 lowell
  1 38 19 7.68583680E+02 8.30303733E+02 5.46280400E-02 lowell
  1 38 20 7.68583680E+02 8.30303733E+02 4.22140800E-01 lowell
  1 38 21 7.68583680E+02 8.30303733E+02 8.42853590E-01 lowell
  1 38 22 7.68583680E+02 8.30303733E+02 3.60750500E-01 lowell
  1 38 23 7.68583680E+02 8.30303733E+02 1.21946290E-01 lowell
  1 38 24 7.68583680E+02 8.30303733E+02 4.79353200E-02 lowell
  1 39 21 7.68583680E+02 8.30303733E+02 1.18415700E-01 lowell
  1 39 22 7.68583680E+02 8.30303733E+02 9.20878580E-01 lowell
  1 39 23 7.68583680E+02 8.30303733E+02 9.98778820E-01 lowell
  1 39 24 7.68583680E+02 8.30303733E+02 6.35735530E-01 lowell
  1 39 25 7.68583680E+02 8.30303733E+02 2.03326000E-02 lowell
  1 40 21 7.68583680E+02 8.30303733E+02 8.96676307E-04 lowell
  1 40 22 7.68583680E+02 8.30303733E+02 8.94676200E-02 lowell
  1 40 23 7.68583680E+02 8.30303733E+02 4.55260220E-01 lowell
  1 40 24 7.68583680E+02 8.30303733E+02 8.32492820E-01 lowell
  1 40 25 7.68583680E+02 8.30303733E+02 8.81461410E-01 lowell
  1 40 26 7.68583680E+02 8.30303733E+02 4.15974540E-01 lowell
  1 41 24 7.68583680E+02 8.30303733E+02 1.25100200E-02 lowell
  1 41 25 7.68583680E+02 8.30303733E+02 3.74663520E-01 lowell
  1 41 26 7.68583680E+02 8.30303733E+02 3.95366070E-01 lowell
  1 41 27 7.68583680E+02 8.30303733E+02 3.49264000E-02 lowell
  1 41 28 7.68583680E+02 8.30303733E+02 7.38914399E-05 lowell
  1 42 26 7.68583680E+02 8.30303733E+02 9.77976149E-04 lowell
  1 42 27 7.68583680E+02 8.30303733E+02 1.79991000E-03 lowell
END period  1

BEGIN period  2
  1 36 20 7.69620000E+02 8.30303733E+02 1.75174600E-01 lowell
  1 36 21 7.69620000E+02 8.30303733E+02 2.91287620E-01 lowell
  1 36 22 7.69620000E+02 8.30303733E+02 5.06450700E-02 lowell
  1 37 19 7.69620000E+02 8.30303733E+02 2.45030020E-01 lowell
  1 37 20 7.69620000E+02 8.30303733E+02 9.66917720E-01 lowell
  1 37 21 7.69620000E+02 8.30303733E+02 1.00000000E+00 lowell
  1 37 22 7.69620000E+02 8.30303733E+02 5.76613840E-01 lowell
  1 38 19 7.69620000E+02 8.30303733E+02 6.91010000E-02 lowell
  1 38 20 7.69620000E+02 8.30303733E+02 4.49347890E-01 lowell
  1 38 21 7.69620000E+02 8.30303733E+02 9.08630250E-01 lowell
  1 38 22 7.69620000E+02 8.30303733E+02 3.83497910E-01 lowell
  1 38 23 7.69620000E+02 8.30303733E+02 1.34614550E-01 lowell
  1 38 24 7.69620000E+02 8.30303733E+02 4.89641400E-02 lowell
  1 39 21 7.69620000E+02 8.30303733E+02 1.46776390E-01 lowell
  1 39 22 7.69620000E+02 8.30303733E+02 9.83886280E-01 lowell
  1 39 23 7.69620000E+02 8.30303733E+02 1.00000000E+00 lowell
  1 39 24 7.69620000E+02 8.30303733E+02 6.45599460E-01 lowell
  1 39 25 7.69620000E+02 8.30303733E+02 2.22737100E-02 lowell
  1 40 22 7.69620000E+02 8.30303733E+02 1.10087530E-01 lowell
  1 40 23 7.69620000E+02 8.30303733E+02 4.90111730E-01 lowell
  1 40 24 7.69620000E+02 8.30303733E+02 8.70447100E-01 lowell
  1 40 25 7.69620000E+02 8.30303733E+02 8.99688620E-01 lowell
  1 40 26 7.69620000E+02 8.30303733E+02 4.65832710E-01 lowell
  1 41 24 7.69620000E+02 8.30303733E+02 1.52931600E-02 lowell
  1 41 25 7.69620000E+02 8.30303733E+02 4.50877040E-01 lowell
  1 41 26 7.69620000E+02 8.30303733E+02 5.09290590E-01 lowell
  1 41 27 7.69620000E+02 8.30303733E+02 5.05452000E-03 lowell
  1 41 27 7.69620000E+02 8.30303733E+02 1.02877500E-02 lowell
  1 42 27 7.69620000E+02 8.30303733E+02 2.34915000E-03 lowell
END period  2

BEGIN period  3
  1 36 20 7.69620000E+02 8.30303733E+02 1.75174600E-01 lowell
  1 36 21 7.69620000E+02 8.30303733E+02 2.91287620E-01 lowell
  1 36 22 7.69620000E+02 8.30303733E+02 5.06450700E-02 lowell
  1 37 19 7.69620000E+02 8.30303733E+02 2.45030020E-01 lowell
  1 37 20 7.69620000E+02 8.30303733E+02 9.66917720E-01 lowell
  1 37 21 7.69620000E+02 8.30303733E+02 1.00000000E+00 lowell
  1 37 22 7.69620000E+02 8.30303733E+02 5.76613840E-01 lowell
  1 38 19 7.69620000E+02 8.30303733E+02 6.91010000E-02 lowell
  1 38 20 7.69620000E+02 8.30303733E+02 4.49347890E-01 lowell
  1 38 21 7.69620000E+02 8.30303733E+02 9.08630250E-01 lowell
  1 38 22 7.69620000E+02 8.30303733E+02 3.83497910E-01 lowell
  1 38 23 7.69620000E+02 8.30303733E+02 1.34614550E-01 lowell
  1 38 24 7.69620000E+02 8.30303733E+02 4.89641400E-02 lowell
  1 39 21 7.69620000E+02 8.30303733E+02 1.46776390E-01 lowell
  1 39 22 7.69620000E+02 8.30303733E+02 9.83886280E-01 lowell
  1 39 23 7.69620000E+02 8.30303733E+02 1.00000000E+00 lowell
  1 39 24 7.69620000E+02 8.30303733E+02 6.45599460E-01 lowell
  1 39 25 7.69620000E+02 8.30303733E+02 2.22737100E-02 lowell
  1 40 22 7.69620000E+02 8.30303733E+02 1.10087530E-01 lowell
  1 40 23 7.69620000E+02 8.30303733E+02 4.90111730E-01 lowell
  1 40 24 7.69620000E+02 8.30303733E+02 8.70447100E-01 lowell
  1 40 25 7.69620000E+02 8.30303733E+02 8.99688620E-01 lowell
  1 40 26 7.69620000E+02 8.30303733E+02 4.65832710E-01 lowell
  1 41 24 7.69620000E+02 8.30303733E+02 1.52931600E-02 lowell
  1 41 25 7.69620000E+02 8.30303733E+02 4.50877040E-01 lowell
  1 41 26 7.69620000E+02 8.30303733E+02 5.09290590E-01 lowell
  1 41 27 7.69620000E+02 8.30303733E+02 5.05452000E-03 lowell
  1 41 27 7.69620000E+02 8.30303733E+02 1.02877500E-02 lowell
  1 42 27 7.69620000E+02 8.30303733E+02 2.34915000E-03 lowell
END period  3

BEGIN period  4
  1 36 20 7.70534400E+02 8.30303733E+02 1.90919810E-01 lowell
  1 36 21 7.70534400E+02 8.30303733E+02 3.15884110E-01 lowell
  1 36 22 7.70534400E+02 8.30303733E+02 7.49497100E-02 lowell
  1 37 19 7.70534400E+02 8.30303733E+02 2.56403230E-01 lowell
  1 37 20 7.70534400E+02 8.30303733E+02 9.67781890E-01 lowell
  1 37 21 7.70534400E+02 8.30303733E+02 1.00000000E+00 lowell
  1 37 22 7.70534400E+02 8.30303733E+02 6.24138910E-01 lowell
  1 38 19 7.70534400E+02 8.30303733E+02 1.15042680E-01 lowell
  1 38 20 7.70534400E+02 8.30303733E+02 4.83488040E-01 lowell
  1 38 21 7.70534400E+02 8.30303733E+02 9.55882540E-01 lowell
  1 38 22 7.70534400E+02 8.30303733E+02 4.23503390E-01 lowell
  1 38 23 7.70534400E+02 8.30303733E+02 1.49104820E-01 lowell
  1 38 24 7.70534400E+02 8.30303733E+02 4.99997900E-02 lowell
  1 39 21 7.70534400E+02 8.30303733E+02 2.62628640E-01 lowell
  1 39 22 7.70534400E+02 8.30303733E+02 9.99998010E-01 lowell
  1 39 23 7.70534400E+02 8.30303733E+02 1.00000000E+00 lowell
  1 39 24 7.70534400E+02 8.30303733E+02 6.57760450E-01 lowell
  1 39 25 7.70534400E+02 8.30303733E+02 2.74419500E-02 lowell
  1 40 21 7.70534400E+02 8.30303733E+02 3.39232000E-03 lowell
  1 40 22 7.70534400E+02 8.30303733E+02 1.88186620E-01 lowell
  1 40 23 7.70534400E+02 8.30303733E+02 5.29862030E-01 lowell
  1 40 24 7.70534400E+02 8.30303733E+02 9.03274990E-01 lowell
  1 40 25 7.70534400E+02 8.30303733E+02 9.07230980E-01 lowell
  1 40 26 7.70534400E+02 8.30303733E+02 5.06003460E-01 lowell
  1 41 24 7.70534400E+02 8.30303733E+02 2.95244100E-02 lowell
  1 41 25 7.70534400E+02 8.30303733E+02 5.24027190E-01 lowell
  1 41 26 7.70534400E+02 8.30303733E+02 7.43356690E-01 lowell
  1 41 27 7.70534400E+02 8.30303733E+02 7.38329100E-02 lowell
  1 41 27 7.70534400E+02 8.30303733E+02 1.79869600E-02 lowell
  1 42 27 7.70534400E+02 8.30303733E+02 6.02204000E-03 lowell
END period  4

BEGIN period  5
  1 36 20 7.70534400E+02 8.30303733E+02 1.90919810E-01 lowell
  1 36 21 7.70534400E+02 8.30303733E+02 3.15884110E-01 lowell
  1 36 22 7.70534400E+02 8.30303733E+02 7.49497100E-02 lowell
  1 37 19 7.70534400E+02 8.30303733E+02 2.56403230E-01 lowell
  1 37 20 7.70534400E+02 8.30303733E+02 9.67781890E-01 lowell
  1 37 21 7.70534400E+02 8.30303733E+02 1.00000000E+00 lowell
  1 37 22 7.70534400E+02 8.30303733E+02 6.24138910E-01 lowell
  1 38 19 7.70534400E+02 8.30303733E+02 1.15042680E-01 lowell
  1 38 20 7.70534400E+02 8.30303733E+02 4.83488040E-01 lowell
  1 38 21 7.70534400E+02 8.30303733E+02 9.55882540E-01 lowell
  1 38 22 7.70534400E+02 8.30303733E+02 4.23503390E-01 lowell
  1 38 23 7.70534400E+02 8.30303733E+02 1.49104820E-01 lowell
  1 38 24 7.70534400E+02 8.30303733E+02 4.99997900E-02 lowell
  1 39 21 7.70534400E+02 8.30303733E+02 2.62628640E-01 lowell
  1 39 22 7.70534400E+02 8.30303733E+02 9.99998010E-01 lowell
  1 39 23 7.70534400E+02 8.30303733E+02 1.00000000E+00 lowell
  1 39 24 7.70534400E+02 8.30303733E+02 6.57760450E-01 lowell
  1 39 25 7.70534400E+02 8.30303733E+02 2.74419500E-02 lowell
  1 40 21 7.70534400E+02 8.30303733E+02 3.39232000E-03 lowell
  1 40 22 7.70534400E+02 8.30303733E+02 1.88186620E-01 lowell
  1 40 23 7.70534400E+02 8.30303733E+02 5.29862030E-01 lowell
  1 40 24 7.70534400E+02 8.30303733E+02 9.03274990E-01 lowell
  1 40 25 7.70534400E+02 8.30303733E+02 9.07230980E-01 lowell
  1 40 26 7.70534400E+02 8.30303733E+02 5.06003460E-01 lowell
  1 41 24 7.70534400E+02 8.30303733E+02 2.95244100E-02 lowell
  1 41 25 7.70534400E+02 8.30303733E+02 5.24027190E-01 lowell
  1 41 26 7.70534400E+02 8.30303733E+02 7.43356690E-01 lowell
  1 41 27 7.70534400E+02 8.30303733E+02 7.38329100E-02 lowell
  1 41 27 7.70534400E+02 8.30303733E+02 1.79869600E-02 lowell
  1 42 27 7.70534400E+02 8.30303733E+02 6.02204000E-03 lowell
END period  5

BEGIN period  6
  1 36 20 7.70839200E+02 8.30303733E+02 1.95501850E-01 lowell
  1 36 21 7.70839200E+02 8.30303733E+02 3.22547170E-01 lowell
  1 36 22 7.70839200E+02 8.30303733E+02 7.76516600E-02 lowell
  1 37 19 7.70839200E+02 8.30303733E+02 2.58342460E-01 lowell
  1 37 20 7.70839200E+02 8.30303733E+02 9.68075890E-01 lowell
  1 37 21 7.70839200E+02 8.30303733E+02 1.00000000E+00 lowell
  1 37 22 7.70839200E+02 8.30303733E+02 6.31995910E-01 lowell
  1 38 19 7.70839200E+02 8.30303733E+02 1.21490280E-01 lowell
  1 38 20 7.70839200E+02 8.30303733E+02 4.96125640E-01 lowell
  1 38 21 7.70839200E+02 8.30303733E+02 9.68038300E-01 lowell
  1 38 22 7.70839200E+02 8.30303733E+02 4.30988620E-01 lowell
  1 38 23 7.70839200E+02 8.30303733E+02 1.54028390E-01 lowell
  1 38 24 7.70839200E+02 8.30303733E+02 5.02569100E-02 lowell
  1 39 21 7.70839200E+02 8.30303733E+02 3.09078200E-01 lowell
  1 39 22 7.70839200E+02 8.30303733E+02 1.00000000E+00 lowell
  1 39 23 7.70839200E+02 8.30303733E+02 1.00000000E+00 lowell
  1 39 24 7.70839200E+02 8.30303733E+02 6.61038330E-01 lowell
  1 39 25 7.70839200E+02 8.30303733E+02 2.87111700E-02 lowell
  1 40 21 7.70839200E+02 8.30303733E+02 7.24667000E-03 lowell
  1 40 22 7.70839200E+02 8.30303733E+02 2.21443600E-01 lowell
  1 40 23 7.70839200E+02 8.30303733E+02 5.49586250E-01 lowell
  1 40 24 7.70839200E+02 8.30303733E+02 9.15978170E-01 lowell
  1 40 25 7.70839200E+02 8.30303733E+02 9.08926050E-01 lowell
  1 40 26 7.70839200E+02 8.30303733E+02 5.20915120E-01 lowell
  1 41 24 7.70839200E+02 8.30303733E+02 3.51672500E-02 lowell
  1 41 25 7.70839200E+02 8.30303733E+02 5.42639480E-01 lowell
  1 41 26 7.70839200E+02 8.30303733E+02 8.19307530E-01 lowell
  1 41 27 7.70839200E+02 8.30303733E+02 9.70483000E-03 lowell
  1 41 27 7.70839200E+02 8.30303733E+02 1.86925550E-01 lowell
  1 42 26 7.70839200E+02 8.30303733E+02 5.45488000E-03 lowell
  1 42 27 7.70839200E+02 8.30303733E+02 6.73988000E-03 lowell
END period  6

BEGIN period  7
  1 36 20 7.69924800E+02 8.30303733E+02 1.80935120E-01 lowell
  1 36 21 7.69924800E+02 8.30303733E+02 3.01005080E-01 lowell
  1 36 22 7.69924800E+02 8.30303733E+02 5.90440300E-02 lowell
  1 37 19 7.69924800E+02 8.30303733E+02 2.49202650E-01 lowell
  1 37 20 7.69924800E+02 8.30303733E+02 9.67202190E-01 lowell
  1 37 21 7.69924800E+02 8.30303733E+02 1.00000000E+00 lowell
  1 37 22 7.69924800E+02 8.30303733E+02 5.94092780E-01 lowell
  1 38 19 7.69924800E+02 8.30303733E+02 8.39244500E-02 lowell
  1 38 20 7.69924800E+02 8.30303733E+02 4.60557550E-01 lowell
  1 38 21 7.69924800E+02 8.30303733E+02 9.26053690E-01 lowell
  1 38 22 7.69924800E+02 8.30303733E+02 4.00110410E-01 lowell
  1 38 23 7.69924800E+02 8.30303733E+02 1.40668300E-01 lowell
  1 38 24 7.69924800E+02 8.30303733E+02 4.93175600E-02 lowell
  1 39 21 7.69924800E+02 8.30303733E+02 1.83431910E-01 lowell
  1 39 22 7.69924800E+02 8.30303733E+02 9.92323480E-01 lowell
  1 39 23 7.69924800E+02 8.30303733E+02 1.00000000E+00 lowell
  1 39 24 7.69924800E+02 8.30303733E+02 6.50371540E-01 lowell
  1 39 25 7.69924800E+02 8.30303733E+02 2.47776500E-02 lowell
  1 40 22 7.69924800E+02 8.30303733E+02 1.32968400E-01 lowell
  1 40 23 7.69924800E+02 8.30303733E+02 5.02972720E-01 lowell
  1 40 24 7.69924800E+02 8.30303733E+02 8.81391560E-01 lowell
  1 40 25 7.69924800E+02 8.30303733E+02 9.02654030E-01 lowell
  1 40 26 7.69924800E+02 8.30303733E+02 4.81561500E-01 lowell
  1 41 24 7.69924800E+02 8.30303733E+02 1.93410000E-02 lowell
  1 41 25 7.69924800E+02 8.30303733E+02 4.77762980E-01 lowell
  1 41 26 7.69924800E+02 8.30303733E+02 6.00393460E-01 lowell
  1 41 27 7.69924800E+02 8.30303733E+02 2.06813000E-02 lowell
  1 42 27 7.69924800E+02 8.30303733E+02 2.66270000E-03 lowell
END period  7

BEGIN period  8
  1 36 20 7.68096000E+02 8.30303733E+02 1.38587370E-01 lowell
  1 36 21 7.68096000E+02 8.30303733E+02 2.23443020E-01 lowell
  1 36 22 7.68096000E+02 8.30303733E+02 7.27414000E-03 lowell
  1 37 19 7.68096000E+02 8.30303733E+02 2.11889950E-01 lowell
  1 37 20 7.68096000E+02 8.30303733E+02 9.65551330E-01 lowell
  1 37 21 7.68096000E+02 8.30303733E+02 1.00000000E+00 lowell
  1 37 22 7.68096000E+02 8.30303733E+02 4.69653900E-01 lowell
  1 38 19 7.68096000E+02 8.30303733E+02 2.01979400E-02 lowell
  1 38 20 7.68096000E+02 8.30303733E+02 3.94755900E-01 lowell
  1 38 21 7.68096000E+02 8.30303733E+02 7.90357070E-01 lowell
  1 38 22 7.68096000E+02 8.30303733E+02 3.38718370E-01 lowell
  1 38 23 7.68096000E+02 8.30303733E+02 1.06496720E-01 lowell
  1 38 24 7.68096000E+02 8.30303733E+02 4.69582600E-02 lowell
  1 39 21 7.68096000E+02 8.30303733E+02 2.97241200E-02 lowell
  1 39 22 7.68096000E+02 8.30303733E+02 8.97049150E-01 lowell
  1 39 23 7.68096000E+02 8.30303733E+02 9.99929100E-01 lowell
  1 39 24 7.68096000E+02 8.30303733E+02 6.23560160E-01 lowell
  1 39 25 7.68096000E+02 8.30303733E+02 1.67514900E-02 lowell
  1 40 22 7.68096000E+02 8.30303733E+02 3.20176600E-02 lowell
  1 40 23 7.68096000E+02 8.30303733E+02 4.24483980E-01 lowell
  1 40 24 7.68096000E+02 8.30303733E+02 7.99389290E-01 lowell
  1 40 25 7.68096000E+02 8.30303733E+02 8.85987810E-01 lowell
  1 40 26 7.68096000E+02 8.30303733E+02 4.05545760E-01 lowell
  1 41 24 7.68096000E+02 8.30303733E+02 2.34207000E-03 lowell
  1 41 25 7.68096000E+02 8.30303733E+02 2.99452090E-01 lowell
  1 41 26 7.68096000E+02 8.30303733E+02 5.28908000E-03 lowell
  1 41 26 7.68096000E+02 8.30303733E+02 1.98827880E-01 lowell
  1 41 27 7.68096000E+02 8.30303733E+02 6.80373339E-05 lowell
END period  8

BEGIN period  9
  1 36 20 7.66572000E+02 8.30303733E+02 9.16324100E-02 lowell
  1 36 21 7.66572000E+02 8.30303733E+02 1.44600010E-01 lowell
  1 37 19 7.66572000E+02 8.30303733E+02 1.35465020E-01 lowell
  1 37 20 7.66572000E+02 8.30303733E+02 9.62843010E-01 lowell
  1 37 21 7.66572000E+02 8.30303733E+02 9.99992730E-01 lowell
  1 37 22 7.66572000E+02 8.30303733E+02 3.41162630E-01 lowell
  1 38 19 7.66572000E+02 8.30303733E+02 1.08715745E-04 lowell
  1 38 20 7.66572000E+02 8.30303733E+02 3.23758470E-01 lowell
  1 38 21 7.66572000E+02 8.30303733E+02 6.22221750E-01 lowell
  1 38 22 7.66572000E+02 8.30303733E+02 2.73362540E-01 lowell
  1 38 23 7.66572000E+02 8.30303733E+02 7.70793300E-02 lowell
  1 38 24 7.66572000E+02 8.30303733E+02 4.40258900E-02 lowell
  1 39 22 7.66572000E+02 8.30303733E+02 6.89516990E-01 lowell
  1 39 23 7.66572000E+02 8.30303733E+02 9.95086310E-01 lowell
  1 39 24 7.66572000E+02 8.30303733E+02 6.01008810E-01 lowell
  1 39 25 7.66572000E+02 8.30303733E+02 1.24493200E-02 lowell
  1 40 22 7.66572000E+02 8.30303733E+02 6.98626126E-04 lowell
  1 40 23 7.66572000E+02 8.30303733E+02 3.10738270E-01 lowell
  1 40 24 7.66572000E+02 8.30303733E+02 6.90633060E-01 lowell
  1 40 25 7.66572000E+02 8.30303733E+02 8.53373910E-01 lowell
  1 40 26 7.66572000E+02 8.30303733E+02 1.57773480E-01 lowell
  1 41 25 7.66572000E+02 8.30303733E+02 5.86356300E-02 lowell
END period  9

BEGIN period  10
  1 36 20 7.67486400E+02 8.30303733E+02 1.20863440E-01 lowell
  1 36 21 7.67486400E+02 8.30303733E+02 1.96701280E-01 lowell
  1 36 22 7.67486400E+02 8.30303733E+02 2.56949000E-03 lowell
  1 37 19 7.67486400E+02 8.30303733E+02 1.81820100E-01 lowell
  1 37 20 7.67486400E+02 8.30303733E+02 9.64514130E-01 lowell
  1 37 21 7.67486400E+02 8.30303733E+02 1.00000000E+00 lowell
  1 37 22 7.67486400E+02 8.30303733E+02 4.19264990E-01 lowell
  1 38 19 7.67486400E+02 8.30303733E+02 2.02372000E-03 lowell
  1 38 20 7.67486400E+02 8.30303733E+02 3.68414380E-01 lowell
  1 38 21 7.67486400E+02 8.30303733E+02 7.31507350E-01 lowell
  1 38 22 7.67486400E+02 8.30303733E+02 3.21547450E-01 lowell
  1 38 23 7.67486400E+02 8.30303733E+02 9.52782500E-02 lowell
  1 38 24 7.67486400E+02 8.30303733E+02 4.58130400E-02 lowell
  1 39 21 7.67486400E+02 8.30303733E+02 7.20590000E-03 lowell
  1 39 22 7.67486400E+02 8.30303733E+02 8.34735480E-01 lowell
  1 39 23 7.67486400E+02 8.30303733E+02 9.99055750E-01 lowell
  1 39 24 7.67486400E+02 8.30303733E+02 6.15751310E-01 lowell
  1 39 25 7.67486400E+02 8.30303733E+02 1.52111600E-02 lowell
  1 40 22 7.67486400E+02 8.30303733E+02 1.57601000E-02 lowell
  1 40 23 7.67486400E+02 8.30303733E+02 3.76899480E-01 lowell
  1 40 24 7.67486400E+02 8.30303733E+02 7.61661860E-01 lowell
  1 40 25 7.67486400E+02 8.30303733E+02 8.82478750E-01 lowell
  1 40 26 7.67486400E+02 8.30303733E+02 3.66614480E-01 lowell
  1 41 24 7.67486400E+02 8.30303733E+02 1.40327157E-04 lowell
  1 41 25 7.67486400E+02 8.30303733E+02 2.16697280E-01 lowell
  1 41 26 7.67486400E+02 8.30303733E+02 7.87357400E-02 lowell
END period  10

BEGIN period  11
  1 36 20 7.69315200E+02 8.30303733E+02 1.69349040E-01 lowell
  1 36 21 7.69315200E+02 8.30303733E+02 2.79457140E-01 lowell
  1 36 22 7.69315200E+02 8.30303733E+02 4.45398900E-02 lowell
  1 37 19 7.69315200E+02 8.30303733E+02 2.42030710E-01 lowell
  1 37 20 7.69315200E+02 8.30303733E+02 9.66636860E-01 lowell
  1 37 21 7.69315200E+02 8.30303733E+02 1.00000000E+00 lowell
  1 37 22 7.69315200E+02 8.30303733E+02 5.55462360E-01 lowell
  1 38 19 7.69315200E+02 8.30303733E+02 5.88348400E-02 lowell
  1 38 20 7.69315200E+02 8.30303733E+02 4.39581340E-01 lowell
  1 38 21 7.69315200E+02 8.30303733E+02 8.86941350E-01 lowell
  1 38 22 7.69315200E+02 8.30303733E+02 3.71832480E-01 lowell
  1 38 23 7.69315200E+02 8.30303733E+02 1.27206560E-01 lowell
  1 38 24 7.69315200E+02 8.30303733E+02 4.85867100E-02 lowell
  1 39 21 7.69315200E+02 8.30303733E+02 1.14699500E-01 lowell
  1 39 22 7.69315200E+02 8.30303733E+02 9.70894950E-01 lowell
  1 39 23 7.69315200E+02 8.30303733E+02 1.00000000E+00 lowell
  1 39 24 7.69315200E+02 8.30303733E+02 6.40180830E-01 lowell
  1 39 25 7.69315200E+02 8.30303733E+02 2.07424600E-02 lowell
  1 40 22 7.69315200E+02 8.30303733E+02 8.64790200E-02 lowell
  1 40 23 7.69315200E+02 8.30303733E+02 4.76947200E-01 lowell
  1 40 24 7.69315200E+02 8.30303733E+02 8.57908370E-01 lowell
  1 40 25 7.69315200E+02 8.30303733E+02 8.95387790E-01 lowell
  1 40 26 7.69315200E+02 8.30303733E+02 4.55298770E-01 lowell
  1 41 24 7.69315200E+02 8.30303733E+02 1.19273800E-02 lowell
  1 41 25 7.69315200E+02 8.30303733E+02 4.17075820E-01 lowell
  1 41 26 7.69315200E+02 8.30303733E+02 3.98471420E-01 lowell
  1 41 26 7.69315200E+02 8.30303733E+02 4.52873000E-03 lowell
  1 41 27 7.69315200E+02 8.30303733E+02 4.45916000E-03 lowell
  1 41 27 7.69315200E+02 8.30303733E+02 3.41923769E-04 lowell
  1 41 27 7.69315200E+02 8.30303733E+02 9.24831000E-03 lowell
  1 42 27 7.69315200E+02 8.30303733E+02 9.31448869E-04 lowell
END period  11

BEGIN period  12
  1 36 20 7.69315200E+02 8.30303733E+02 1.69349040E-01 lowell
  1 36 21 7.69315200E+02 8.30303733E+02 2.79457140E-01 lowell
  1 36 22 7.69315200E+02 8.30303733E+02 4.45398900E-02 lowell
  1 37 19 7.69315200E+02 8.30303733E+02 2.42030710E-01 lowell
  1 37 20 7.69315200E+02 8.30303733E+02 9.66636860E-01 lowell
  1 37 21 7.69315200E+02 8.30303733E+02 1.00000000E+00 lowell
  1 37 22 7.69315200E+02 8.30303733E+02 5.55462360E-01 lowell
  1 38 19 7.69315200E+02 8.30303733E+02 5.88348400E-02 lowell
  1 38 20 7.69315200E+02 8.30303733E+02 4.39581340E-01 lowell
  1 38 21 7.69315200E+02 8.30303733E+02 8.86941350E-01 lowell
  1 38 22 7.69315200E+02 8.30303733E+02 3.71832480E-01 lowell
  1 38 23 7.69315200E+02 8.30303733E+02 1.27206560E-01 lowell
  1 38 24 7.69315200E+02 8.30303733E+02 4.85867100E-02 lowell
  1 39 21 7.69315200E+02 8.30303733E+02 1.14699500E-01 lowell
  1 39 22 7.69315200E+02 8.30303733E+02 9.70894950E-01 lowell
  1 39 23 7.69315200E+02 8.30303733E+02 1.00000000E+00 lowell
  1 39 24 7.69315200E+02 8.30303733E+02 6.40180830E-01 lowell
  1 39 25 7.69315200E+02 8.30303733E+02 2.07424600E-02 lowell
  1 40 22 7.69315200E+02 8.30303733E+02 8.64790200E-02 lowell
  1 40 23 7.69315200E+02 8.30303733E+02 4.76947200E-01 lowell
  1 40 24 7.69315200E+02 8.30303733E+02 8.57908370E-01 lowell
  1 40 25 7.69315200E+02 8.30303733E+02 8.95387790E-01 lowell
  1 40 26 7.69315200E+02 8.30303733E+02 4.55298770E-01 lowell
  1 41 24 7.69315200E+02 8.30303733E+02 1.19273800E-02 lowell
  1 41 25 7.69315200E+02 8.30303733E+02 4.17075820E-01 lowell
  1 41 26 7.69315200E+02 8.30303733E+02 3.98471420E-01 lowell
  1 41 26 7.69315200E+02 8.30303733E+02 4.52873000E-03 lowell
  1 41 27 7.69315200E+02 8.30303733E+02 9.24831000E-03 lowell
  1 41 27 7.69315200E+02 8.30303733E+02 3.41923769E-04 lowell
  1 41 27 7.69315200E+02 8.30303733E+02 4.45916000E-03 lowell
  1 42 27 7.69315200E+02 8.30303733E+02 9.31448869E-04 lowell
END period  12

BEGIN period  13
  1 36 20 7.69315200E+02 8.30303733E+02 1.69349040E-01 lowell
  1 36 21 7.69315200E+02 8.30303733E+02 2.79457140E-01 lowell
  1 36 22 7.69315200E+02 8.30303733E+02 4.45398900E-02 lowell
  1 37 19 7.69315200E+02 8.30303733E+02 2.42030710E-01 lowell
  1 37 20 7.69315200E+02 8.30303733E+02 9.66636860E-01 lowell
  1 37 21 7.69315200E+02 8.30303733E+02 1.00000000E+00 lowell
  1 37 22 7.69315200E+02 8.30303733E+02 5.55462360E-01 lowell
  1 38 19 7.69315200E+02 8.30303733E+02 5.88348400E-02 lowell
  1 38 20 7.69315200E+02 8.30303733E+02 4.39581340E-01 lowell
  1 38 21 7.69315200E+02 8.30303733E+02 8.86941350E-01 lowell
  1 38 22 7.69315200E+02 8.30303733E+02 3.71832480E-01 lowell
  1 38 23 7.69315200E+02 8.30303733E+02 1.27206560E-01 lowell
  1 38 24 7.69315200E+02 8.30303733E+02 4.85867100E-02 lowell
  1 39 21 7.69315200E+02 8.30303733E+02 1.14699500E-01 lowell
  1 39 22 7.69315200E+02 8.30303733E+02 9.70894950E-01 lowell
  1 39 23 7.69315200E+02 8.30303733E+02 1.00000000E+00 lowell
  1 39 24 7.69315200E+02 8.30303733E+02 6.40180830E-01 lowell
  1 39 25 7.69315200E+02 8.30303733E+02 2.07424600E-02 lowell
  1 40 22 7.69315200E+02 8.30303733E+02 8.64790200E-02 lowell
  1 40 23 7.69315200E+02 8.30303733E+02 4.76947200E-01 lowell
  1 40 24 7.69315200E+02 8.30303733E+02 8.57908370E-01 lowell
  1 40 25 7.69315200E+02 8.30303733E+02 8.95387790E-01 lowell
  1 40 26 7.69315200E+02 8.30303733E+02 4.55298770E-01 lowell
  1 41 24 7.69315200E+02 8.30303733E+02 1.19273800E-02 lowell
  1 41 25 7.69315200E+02 8.30303733E+02 4.17075820E-01 lowell
  1 41 26 7.69315200E+02 8.30303733E+02 4.52873000E-03 lowell
  1 41 26 7.69315200E+02 8.30303733E+02 3.98471420E-01 lowell
  1 41 27 7.69315200E+02 8.30303733E+02 4.45916000E-03 lowell
  1 41 27 7.69315200E+02 8.30303733E+02 9.24831000E-03 lowell
  1 41 27 7.69315200E+02 8.30303733E+02 3.41923769E-04 lowell
  1 42 27 7.69315200E+02 8.30303733E+02 9.31448869E-04 lowell
END period  13

BEGIN period  14
  1 36 20 7.69315200E+02 8.30303733E+02 1.69349040E-01 lowell
  1 36 21 7.69315200E+02 8.30303733E+02 2.79457140E-01 lowell
  1 36 22 7.69315200E+02 8.30303733E+02 4.45398900E-02 lowell
  1 37 19 7.69315200E+02 8.30303733E+02 2.42030710E-01 lowell
  1 37 20 7.69315200E+02 8.30303733E+02 9.66636860E-01 lowell
  1 37 21 7.69315200E+02 8.30303733E+02 1.00000000E+00 lowell
  1 37 22 7.69315200E+02 8.30303733E+02 5.55462360E-01 lowell
  1 38 19 7.69315200E+02 8.30303733E+02 5.88348400E-02 lowell
  1 38 20 7.69315200E+02 8.30303733E+02 4.39581340E-01 lowell
  1 38 21 7.69315200E+02 8.30303733E+02 8.86941350E-01 lowell
  1 38 22 7.69315200E+02 8.30303733E+02 3.71832480E-01 lowell
  1 38 23 7.69315200E+02 8.30303733E+02 1.27206560E-01 lowell
  1 38 24 7.69315200E+02 8.30303733E+02 4.85867100E-02 lowell
  1 39 21 7.69315200E+02 8.30303733E+02 1.14699500E-01 lowell
  1 39 22 7.69315200E+02 8.30303733E+02 9.70894950E-01 lowell
  1 39 23 7.69315200E+02 8.30303733E+02 1.00000000E+00 lowell
  1 39 24 7.69315200E+02 8.30303733E+02 6.40180830E-01 lowell
  1 39 25 7.69315200E+02 8.30303733E+02 2.07424600E-02 lowell
  1 40 22 7.69315200E+02 8.30303733E+02 8.64790200E-02 lowell
  1 40 23 7.69315200E+02 8.30303733E+02 4.76947200E-01 lowell
  1 40 24 7.69315200E+02 8.30303733E+02 8.57908370E-01 lowell
  1 40 25 7.69315200E+02 8.30303733E+02 8.95387790E-01 lowell
  1 40 26 7.69315200E+02 8.30303733E+02 4.55298770E-01 lowell
  1 41 24 7.69315200E+02 8.30303733E+02 1.19273800E-02 lowell
  1 41 25 7.69315200E+02 8.30303733E+02 4.17075820E-01 lowell
  1 41 26 7.69315200E+02 8.30303733E+02 3.98471420E-01 lowell
  1 41 26 7.69315200E+02 8.30303733E+02 4.52873000E-03 lowell
  1 41 27 7.69315200E+02 8.30303733E+02 9.24831000E-03 lowell
  1 41 27 7.69315200E+02 8.30303733E+02 3.41923769E-04 lowell
  1 41 27 7.69315200E+02 8.30303733E+02 4.45916000E-03 lowell
  1 42 27 7.69315200E+02 8.30303733E+02 9.31448869E-04 lowell
END period  14

BEGIN period  15
  1 36 20 7.69620000E+02 8.30303733E+02 1.75174600E-01 lowell
  1 36 21 7.69620000E+02 8.30303733E+02 2.91287620E-01 lowell
  1 36 22 7.69620000E+02 8.30303733E+02 5.06450700E-02 lowell
  1 37 19 7.69620000E+02 8.30303733E+02 2.45030020E-01 lowell
  1 37 20 7.69620000E+02 8.30303733E+02 9.66917720E-01 lowell
  1 37 21 7.69620000E+02 8.30303733E+02 1.00000000E+00 lowell
  1 37 22 7.69620000E+02 8.30303733E+02 5.76613840E-01 lowell
  1 38 19 7.69620000E+02 8.30303733E+02 6.91010000E-02 lowell
  1 38 20 7.69620000E+02 8.30303733E+02 4.49347890E-01 lowell
  1 38 21 7.69620000E+02 8.30303733E+02 9.08630250E-01 lowell
  1 38 22 7.69620000E+02 8.30303733E+02 3.83497910E-01 lowell
  1 38 23 7.69620000E+02 8.30303733E+02 1.34614550E-01 lowell
  1 38 24 7.69620000E+02 8.30303733E+02 4.89641400E-02 lowell
  1 39 21 7.69620000E+02 8.30303733E+02 1.46776390E-01 lowell
  1 39 22 7.69620000E+02 8.30303733E+02 9.83886280E-01 lowell
  1 39 23 7.69620000E+02 8.30303733E+02 1.00000000E+00 lowell
  1 39 24 7.69620000E+02 8.30303733E+02 6.45599460E-01 lowell
  1 39 25 7.69620000E+02 8.30303733E+02 2.22737100E-02 lowell
  1 40 22 7.69620000E+02 8.30303733E+02 1.10087530E-01 lowell
  1 40 23 7.69620000E+02 8.30303733E+02 4.90111730E-01 lowell
  1 40 24 7.69620000E+02 8.30303733E+02 8.70447100E-01 lowell
  1 40 25 7.69620000E+02 8.30303733E+02 8.99688620E-01 lowell
  1 40 26 7.69620000E+02 8.30303733E+02 4.65832710E-01 lowell
  1 41 24 7.69620000E+02 8.30303733E+02 1.52931600E-02 lowell
  1 41 25 7.69620000E+02 8.30303733E+02 4.50877040E-01 lowell
  1 41 26 7.69620000E+02 8.30303733E+02 5.09290590E-01 lowell
  1 41 27 7.69620000E+02 8.30303733E+02 5.05452000E-03 lowell
  1 41 27 7.69620000E+02 8.30303733E+02 1.02877500E-02 lowell
  1 42 27 7.69620000E+02 8.30303733E+02 2.34915000E-03 lowell
END period  15

BEGIN period  16
  1 36 20 7.70229600E+02 8.30303733E+02 1.86133100E-01 lowell
  1 36 21 7.70229600E+02 8.30303733E+02 3.09351610E-01 lowell
  1 36 22 7.70229600E+02 8.30303733E+02 6.65497600E-02 lowell
  1 37 19 7.70229600E+02 8.30303733E+02 2.51878060E-01 lowell
  1 37 20 7.70229600E+02 8.30303733E+02 9.67490350E-01 lowell
  1 37 21 7.70229600E+02 8.30303733E+02 1.00000000E+00 lowell
  1 37 22 7.70229600E+02 8.30303733E+02 6.10122150E-01 lowell
  1 38 19 7.70229600E+02 8.30303733E+02 1.01147050E-01 lowell
  1 38 20 7.70229600E+02 8.30303733E+02 4.72779490E-01 lowell
  1 38 21 7.70229600E+02 8.30303733E+02 9.41439280E-01 lowell
  1 38 22 7.70229600E+02 8.30303733E+02 4.14529890E-01 lowell
  1 38 23 7.70229600E+02 8.30303733E+02 1.45210770E-01 lowell
  1 38 24 7.70229600E+02 8.30303733E+02 4.96959300E-02 lowell
  1 39 21 7.70229600E+02 8.30303733E+02 2.19336770E-01 lowell
  1 39 22 7.70229600E+02 8.30303733E+02 9.99126220E-01 lowell
  1 39 23 7.70229600E+02 8.30303733E+02 1.00000000E+00 lowell
  1 39 24 7.70229600E+02 8.30303733E+02 6.54178290E-01 lowell
  1 39 25 7.70229600E+02 8.30303733E+02 2.62617200E-02 lowell
  1 40 22 7.70229600E+02 8.30303733E+02 1.57590820E-01 lowell
  1 40 23 7.70229600E+02 8.30303733E+02 5.15588390E-01 lowell
  1 40 24 7.70229600E+02 8.30303733E+02 8.91999820E-01 lowell
  1 40 25 7.70229600E+02 8.30303733E+02 9.05200830E-01 lowell
  1 40 26 7.70229600E+02 8.30303733E+02 4.94650710E-01 lowell
  1 41 24 7.70229600E+02 8.30303733E+02 2.44202200E-02 lowell
  1 41 25 7.70229600E+02 8.30303733E+02 5.00763560E-01 lowell
  1 41 26 7.70229600E+02 8.30303733E+02 6.70736770E-01 lowell
  1 41 27 7.70229600E+02 8.30303733E+02 4.93351500E-02 lowell
  1 42 27 7.70229600E+02 8.30303733E+02 5.11516000E-03 lowell
END period  16

BEGIN period  17
  1 36 20 7.69924800E+02 8.30303733E+02 1.80935120E-01 lowell
  1 36 21 7.69924800E+02 8.30303733E+02 3.01005080E-01 lowell
  1 36 22 7.69924800E+02 8.30303733E+02 5.90440300E-02 lowell
  1 37 19 7.69924800E+02 8.30303733E+02 2.49202650E-01 lowell
  1 37 20 7.69924800E+02 8.30303733E+02 9.67202190E-01 lowell
  1 37 21 7.69924800E+02 8.30303733E+02 1.00000000E+00 lowell