# File generated by Flopy version 3.8.0 on 08/20/2024 at 11:25:50.
BEGIN options
END options

BEGIN griddata
  strt
    CONSTANT     972.91513539
END griddata

