# File generated by Flopy version 3.8.0 on 08/20/2024 at 11:26:09.
BEGIN options
  auxiliary  multiplier
  AUXMULTNAME  multiplier
  BOUNDNAMES
  SAVE_FLOWS
  TS6  FILEIN  mf6-tv_hist-canal_leakage_rates-b-area_dist.ts
END options

BEGIN dimensions
  MAXBOUND  2339
END dimensions

BEGIN period  1
  1 5 9 leakb97 7.01314600E-02 leakb97
  1 5 10 leakb94 2.73651200E-02 leakb94
  1 5 10 leakb97 6.33979400E-02 leakb97
  1 5 11 leakb94 3.08155600E-02 leakb94
  1 5 12 leakb94 5.54555700E-02 leakb94
  1 5 13 leakb94 1.97907600E-02 leakb94
  1 6 9 leakb97 1.11690000E-03 leakb97
  1 6 10 leakb94 2.34173400E-02 leakb94
  1 6 10 leakb97 1.63356200E-02 leakb97
  1 6 11 leakb94 1.78842100E-02 leakb94
  1 6 11 leakb97 4.54794000E-03 leakb97
  1 6 12 leakb94 4.26071200E-02 leakb94
  1 6 12 leakb97 1.26957000E-03 leakb97
  1 6 13 leakb94 3.59756600E-02 leakb94
  1 6 13 leakb97 2.21772000E-03 leakb97
  1 6 14 leakb35 1.00000000E+00 leakb35
  1 6 14 leakb94 4.47623400E-02 leakb94
  1 7 9 leakb97 1.22135000E-03 leakb97
  1 7 10 leakb97 1.01083100E-02 leakb97
  1 7 11 leakb97 8.56555000E-03 leakb97
  1 7 12 leakb94 4.24828000E-03 leakb94
  1 7 12 leakb97 1.45276900E-02 leakb97
  1 7 13 leakb94 9.67778000E-03 leakb94
  1 7 13 leakb97 1.36598800E-02 leakb97
  1 7 14 leakb94 1.74593800E-02 leakb94
  1 7 14 leakb97 6.91029000E-03 leakb97
  1 7 15 leakb94 2.93027500E-02 leakb94
  1 7 15 leakb95 4.83362400E-02 leakb95
  1 7 15 leakb97 7.71381738E-04 leakb97
  1 7 16 leakb94 1.18635740E-01 leakb94
  1 7 16 leakb95 5.33181300E-02 leakb95
  1 8 9 leakb97 1.68632600E-02 leakb97
  1 8 10 leakb97 4.88006000E-03 leakb97
  1 8 11 leakb97 8.27628000E-03 leakb97
  1 8 12 leakb97 1.48491000E-02 leakb97
  1 8 13 leakb97 1.45116200E-02 leakb97
  1 8 14 leakb97 1.41420000E-02 leakb97
  1 8 15 leakb94 2.83909000E-03 leakb94
  1 8 15 leakb97 1.23903200E-02 leakb97
  1 8 16 leakb94 1.25514200E-02 leakb94
  1 8 16 leakb97 2.90875000E-03 leakb97
  1 8 17 leakb94 3.70532700E-02 leakb94
  1 9 9 leakb97 1.65043600E-02 leakb97
  1 9 10 leakb97 8.11022000E-03 leakb97
  1 9 11 leakb97 7.34420000E-03 leakb97
  1 9 12 leakb97 7.36027000E-03 leakb97
  1 9 13 leakb97 8.73429000E-03 leakb97
  1 9 14 leakb97 7.98702000E-03 leakb97
  1 9 15 leakb97 1.39973600E-02 leakb97
  1 9 16 leakb94 3.73019500E-04 leakb94
  1 9 16 leakb97 1.10886100E-02 leakb97
  1 9 17 leakb94 9.85082300E-02 leakb94
  1 9 17 leakb97 2.97303000E-03 leakb97
  1 9 18 leakb94 6.63560200E-02 leakb94
  1 9 18 leakb95 1.77924800E-02 leakb95
  1 10 8 leakb97 1.31938400E-02 leakb97
  1 10 9 leakb97 3.12409600E-02 leakb97
  1 10 9 leakb102 0.00000000E+00 leakb102
  1 10 10 leakb97 3.49907300E-02 leakb97
  1 10 10 leakb102 2.68719000E-03 leakb102
  1 10 11 leakb97 1.00922400E-02 leakb97
  1 10 11 leakb102 8.28760501E-04 leakb102
  1 10 12 leakb97 1.08957700E-02 leakb97
  1 10 13 leakb97 6.18712000E-03 leakb97
  1 10 14 leakb97 6.77370000E-03 leakb97
  1 10 15 leakb97 9.37711000E-03 leakb97
  1 10 16 leakb97 8.67001000E-03 leakb97
  1 10 17 leakb94 4.14466111E-05 leakb94
  1 10 17 leakb97 5.27914000E-03 leakb97
  1 10 18 leakb94 5.00951400E-02 leakb94
  1 10 18 leakb97 5.67287000E-03 leakb97
  1 10 19 leakb94 1.08125920E-01 leakb94
  1 10 19 leakb95 6.16806000E-03 leakb95
  1 11 8 leakb97 3.98707900E-02 leakb97
  1 11 9 leakb97 5.80063000E-02 leakb97
  1 11 9 leakb102 5.34927000E-03 leakb102
  1 11 10 leakb102 1.33857400E-02 leakb102
  1 11 11 leakb97 2.47485000E-03 leakb97
  1 11 11 leakb102 1.22807200E-02 leakb102
  1 11 12 leakb97 3.29444000E-03 leakb97
  1 11 12 leakb102 1.11254800E-02 leakb102
  1 11 13 leakb97 3.92119000E-03 leakb97
  1 11 13 leakb102 1.16026500E-02 leakb102
  1 11 14 leakb97 7.13528000E-03 leakb97
  1 11 14 leakb102 8.16204000E-03 leakb102
  1 11 15 leakb97 9.43336000E-03 leakb97
  1 11 15 leakb102 3.74198000E-03 leakb102
  1 11 16 leakb97 6.05053000E-03 leakb97
  1 11 16 leakb102 3.01367455E-04 leakb102
  1 11 17 leakb97 8.37271000E-03 leakb97
  1 11 17 leakb102 1.50683727E-04 leakb102
  1 11 18 leakb94 7.46038999E-04 leakb94
  1 11 18 leakb97 6.60496000E-03 leakb97
  1 11 19 leakb94 6.55270900E-02 leakb94
  1 11 19 leakb95 1.49654500E-02 leakb95
  1 11 19 leakb97 2.39450000E-03 leakb97
  1 11 20 leakb94 8.03857000E-02 leakb94
  1 11 20 leakb95 2.63131000E-02 leakb95
  1 11 21 leakb95 7.51238000E-03 leakb95
  1 11 22 leakb95 9.09393000E-03 leakb95
  1 12 8 leakb97 3.52907100E-02 leakb97
  1 12 8 leakb102 1.28081000E-03 leakb102
  1 12 9 leakb97 1.50258700E-02 leakb97
  1 12 9 leakb102 1.24565200E-02 leakb102
  1 12 10 leakb102 9.09125000E-03 leakb102
  1 12 11 leakb102 1.06232000E-02 leakb102
  1 12 12 leakb81 3.05740100E-02 leakb81
  1 12 12 leakb102 1.06734300E-02 leakb102
  1 12 13 leakb81 2.64775000E-03 leakb81
  1 12 13 leakb102 6.37894000E-03 leakb102
  1 12 14 leakb102 1.12259400E-02 leakb102
  1 12 15 leakb102 1.28834600E-02 leakb102
  1 12 16 leakb97 4.16225000E-03 leakb97
  1 12 16 leakb102 1.22556100E-02 leakb102
  1 12 17 leakb97 9.64227000E-03 leakb97
  1 12 17 leakb102 3.66664000E-03 leakb102
  1 12 18 leakb97 8.25218000E-03 leakb97
  1 12 19 leakb95 1.58550800E-02 leakb95
  1 12 19 leakb97 6.02642000E-03 leakb97
  1 12 20 leakb95 3.80561400E-02 leakb95
  1 12 21 leakb95 1.15453400E-02 leakb95
  1 12 22 leakb95 7.26526000E-03 leakb95
  1 12 23 leakb95 1.71994000E-02 leakb95
  1 12 24 leakb95 4.34531900E-02 leakb95
  1 13 8 leakb97 3.35872000E-03 leakb97
  1 13 8 leakb102 2.08446000E-03 leakb102
  1 13 9 leakb102 1.05980900E-02 leakb102
  1 13 10 leakb102 9.41773000E-03 leakb102
  1 13 11 leakb102 1.14519600E-02 leakb102
  1 13 12 leakb81 1.75850500E-02 leakb81
  1 13 12 leakb102 9.66887000E-03 leakb102
  1 13 13 leakb81 2.84758000E-03 leakb81
  1 13 13 leakb102 4.26937228E-04 leakb102
  1 13 14 leakb102 6.27848864E-04 leakb102
  1 13 15 leakb81 3.49702753E-04 leakb81
  1 13 15 leakb102 6.07758000E-03 leakb102
  1 13 16 leakb97 4.82113586E-04 leakb97
  1 13 16 leakb102 1.29085700E-02 leakb102
  1 13 17 leakb97 7.40848000E-03 leakb97
  1 13 17 leakb102 7.86067000E-03 leakb102
  1 13 18 leakb97 8.96731000E-03 leakb97
  1 13 18 leakb102 4.54563000E-03 leakb102
  1 13 19 leakb95 8.50085000E-03 leakb95
  1 13 19 leakb97 6.99065000E-03 leakb97
  1 13 19 leakb102 6.02734910E-04 leakb102
  1 13 20 leakb95 2.62340200E-02 leakb95
  1 13 20 leakb97 4.15421000E-03 leakb97
  1 13 21 leakb95 1.94432300E-02 leakb95
  1 13 21 leakb97 1.04458000E-03 leakb97
  1 13 22 leakb95 1.13344700E-02 leakb95
  1 13 23 leakb95 4.69194000E-03 leakb95
  1 13 24 leakb95 1.42142100E-02 leakb95
  1 13 25 leakb95 1.44119100E-02 leakb95
  1 13 26 leakb95 7.83858000E-03 leakb95
  1 13 27 leakb95 1.18122300E-02 leakb95
  1 13 28 leakb95 3.31236700E-02 leakb95
  1 13 34 leakb95 3.79573000E-03 leakb95
  1 13 34 leakb102 2.36071000E-03 leakb102
  1 14 8 leakb97 1.53794200E-02 leakb97
  1 14 8 leakb102 1.93377000E-03 leakb102
  1 14 9 leakb102 1.01962700E-02 leakb102
  1 14 10 leakb102 7.48396000E-03 leakb102
  1 14 11 leakb102 7.50907000E-03 leakb102
  1 14 12 leakb81 2.70270300E-02 leakb81
  1 14 12 leakb102 9.34239000E-03 leakb102
  1 14 13 leakb81 7.99321000E-03 leakb81
  1 14 13 leakb102 4.01823273E-04 leakb102
  1 14 15 leakb81 5.89499000E-03 leakb81
  1 14 15 leakb102 1.43150000E-03 leakb102
  1 14 16 leakb81 3.04741000E-03 leakb81
  1 14 16 leakb102 8.33783000E-03 leakb102
  1 14 17 leakb81 1.89839000E-03 leakb81
  1 14 17 leakb102 1.22807200E-02 leakb102
  1 14 18 leakb102 1.15524200E-02 leakb102
  1 14 19 leakb97 2.11326000E-03 leakb97
  1 14 19 leakb102 1.19542400E-02 leakb102
  1 14 20 leakb97 4.40330000E-03 leakb97
  1 14 20 leakb102 5.60041000E-03 leakb102
  1 14 21 leakb95 1.89786500E-02 leakb95
  1 14 21 leakb96 1.75757300E-02 leakb96
  1 14 21 leakb97 9.07981000E-03 leakb97
  1 14 22 leakb95 2.88633600E-02 leakb95
  1 14 22 leakb96 1.69602400E-02 leakb96
  1 14 23 leakb95 1.16771400E-02 leakb95
  1 14 24 leakb95 5.64747000E-03 leakb95
  1 14 25 leakb95 8.05604000E-03 leakb95
  1 14 26 leakb95 1.32059700E-02 leakb95
  1 14 27 leakb95 1.44514500E-02 leakb95
  1 14 28 leakb95 1.41549100E-02 leakb95
  1 14 29 leakb95 1.32158600E-02 leakb95
  1 14 30 leakb95 1.14069600E-02 leakb95
  1 14 31 leakb95 1.24547400E-02 leakb95
  1 14 32 leakb95 1.40165200E-02 leakb95
  1 14 33 leakb95 8.15489000E-03 leakb95
  1 14 33 leakb96 5.47104563E-05 leakb96
  1 14 34 leakb95 1.31862000E-02 leakb95
  1 14 34 leakb96 1.62764000E-03 leakb96
  1 14 34 leakb102 2.71481800E-02 leakb102
  1 14 35 leakb93 2.45152000E-03 leakb93
  1 14 35 leakb95 1.58155381E-04 leakb95
  1 14 35 leakb101 2.45152000E-03 leakb101
  1 14 35 leakb102 5.32416000E-03 leakb102
  1 15 8 leakb97 1.39813000E-03 leakb97
  1 15 8 leakb102 9.76933000E-03 leakb102
  1 15 9 leakb102 1.13012800E-02 leakb102
  1 15 10 leakb102 1.29085700E-02 leakb102
  1 15 11 leakb102 6.83100000E-03 leakb102
  1 15 12 leakb81 1.08907400E-02 leakb81
  1 15 12 leakb102 2.56162000E-03 leakb102
  1 15 13 leakb81 1.59864000E-03 leakb81
  1 15 16 leakb102 1.68263000E-03 leakb102
  1 15 17 leakb81 0.00000000E+00 leakb81
  1 15 17 leakb102 2.33560000E-03 leakb102
  1 15 18 leakb102 5.72598000E-03 leakb102
  1 15 19 leakb93 8.85272136E-04 leakb93
  1 15 19 leakb101 8.85272136E-04 leakb101
  1 15 19 leakb102 6.10269000E-03 leakb102
  1 15 20 leakb93 2.38342000E-03 leakb93
  1 15 20 leakb97 7.87452190E-04 leakb97
  1 15 20 leakb101 2.38342000E-03 leakb101
  1 15 20 leakb102 4.65864000E-03 leakb102
  1 15 21 leakb96 2.14396600E-02 leakb96
  1 15 21 leakb97 3.24623000E-03 leakb97
  1 15 21 leakb102 3.61641000E-03 leakb102
  1 15 22 leakb95 5.17959000E-03 leakb95
  1 15 22 leakb96 2.75672300E-02 leakb96
  1 15 23 leakb95 2.27941400E-02 leakb95
  1 15 23 leakb96 2.90922900E-02 leakb96
  1 15 24 leakb95 2.52653200E-02 leakb95
  1 15 24 leakb96 1.18174600E-02 leakb96
  1 15 25 leakb95 1.03328200E-02 leakb95
  1 15 26 leakb95 8.50085000E-03 leakb95
  1 15 27 leakb95 1.43526000E-02 leakb95
  1 15 28 leakb95 1.41746800E-02 leakb95
  1 15 29 leakb95 1.29885100E-02 leakb95
  1 15 30 leakb95 1.38583700E-02 leakb95
  1 15 31 leakb95 1.45305300E-02 leakb95
  1 15 32 leakb95 7.67054000E-03 leakb95
  1 15 32 leakb96 1.50453755E-04 leakb96
  1 15 33 leakb95 4.29985000E-03 leakb95
  1 15 33 leakb96 8.76735000E-03 leakb96
  1 15 33 leakb102 1.89610400E-02 leakb102
  1 15 34 leakb95 6.14829000E-03 leakb95
  1 15 34 leakb96 4.40419000E-03 leakb96
  1 15 34 leakb102 4.31708900E-02 leakb102
  1 15 35 leakb93 5.41378000E-03 leakb93
  1 15 35 leakb101 5.41378000E-03 leakb101
  1 15 35 leakb102 8.11181000E-03 leakb102
  1 16 7 leakb25 5.99820000E-03 leakb25
  1 16 7 leakb97 8.95124000E-03 leakb97
  1 16 8 leakb25 3.64891000E-03 leakb25
  1 16 8 leakb97 8.03522643E-04 leakb97
  1 16 8 leakb102 9.89490000E-03 leakb102
  1 16 9 leakb25 4.04879000E-03 leakb25
  1 16 9 leakb102 1.31094800E-02 leakb102
  1 16 10 leakb81 1.47374700E-02 leakb81
  1 16 10 leakb102 5.27393000E-03 leakb102
  1 16 11 leakb81 4.29634800E-02 leakb81
  1 16 11 leakb102 6.02735000E-03 leakb102
  1 16 12 leakb81 5.79507400E-02 leakb81
  1 16 12 leakb102 6.90634000E-03 leakb102
  1 16 13 leakb81 1.34885300E-02 leakb81
  1 16 13 leakb102 4.26937228E-04 leakb102
  1 16 18 leakb102 1.00455818E-04 leakb102
  1 16 19 leakb93 2.99631000E-03 leakb93
  1 16 19 leakb101 2.99631000E-03 leakb101
  1 16 19 leakb102 2.51139546E-04 leakb102
  1 16 20 leakb93 2.31533000E-03 leakb93
  1 16 20 leakb101 2.31533000E-03 leakb101
  1 16 20 leakb102 1.50683727E-04 leakb102
  1 16 21 leakb93 3.20060000E-03 leakb93
  1 16 21 leakb96 6.26435000E-03 leakb96
  1 16 21 leakb97 3.18195000E-03 leakb97
  1 16 21 leakb101 3.20060000E-03 leakb101
  1 16 21 leakb102 1.84587600E-02 leakb102
  1 16 22 leakb96 1.68371400E-02 leakb96
  1 16 22 leakb97 5.41574000E-03 leakb97
  1 16 22 leakb102 8.71454000E-03 leakb102
  1 16 23 leakb96 3.29630500E-02 leakb96
  1 16 23 leakb97 6.58888567E-04 leakb97
  1 16 24 leakb95 8.65901000E-03 leakb95
  1 16 24 leakb96 2.15696000E-02 leakb96
  1 16 25 leakb95 1.78419000E-02 leakb95
  1 16 25 leakb96 1.23098500E-02 leakb96
  1 16 26 leakb95 1.26326600E-02 leakb95
  1 16 26 leakb96 4.00754000E-03 leakb96
  1 16 27 leakb95 1.30675900E-02 leakb95
  1 16 27 leakb96 3.07062400E-02 leakb96
  1 16 28 leakb95 1.42339800E-02 leakb95
  1 16 29 leakb95 1.54102600E-02 leakb95
  1 16 30 leakb95 1.75255900E-02 leakb95
  1 16 31 leakb95 1.74761700E-02 leakb95
  1 16 31 leakb96 6.56525476E-04 leakb96
  1 16 31 leakb97 1.97667000E-03 leakb97
  1 16 32 leakb95 4.81385000E-03 leakb95
  1 16 32 leakb96 1.33083200E-02 leakb96
  1 16 32 leakb97 2.97303000E-03 leakb97
  1 16 33 leakb96 1.22825000E-02 leakb96
  1 16 33 leakb102 3.99311900E-02 leakb102
  1 16 34 leakb93 6.33310000E-03 leakb93
  1 16 34 leakb101 6.33310000E-03 leakb101
  1 16 34 leakb102 2.63947700E-02 leakb102
  1 16 35 leakb93 4.68173000E-03 leakb93
  1 16 35 leakb101 4.68173000E-03 leakb101
  1 16 35 leakb102 5.02279091E-04 leakb102
  1 17 7 leakb25 3.94882000E-03 leakb25
  1 17 7 leakb62 1.91490400E-02 leakb62
  1 17 8 leakb25 2.27931600E-02 leakb25
  1 17 8 leakb102 6.45429000E-03 leakb102
  1 17 9 leakb25 1.30960700E-02 leakb25
  1 17 9 leakb102 7.10725000E-03 leakb102
  1 17 10 leakb81 1.89839000E-03 leakb81
  1 17 10 leakb102 3.26481000E-03 leakb102
  1 17 11 leakb81 9.89159000E-03 leakb81
  1 17 11 leakb102 7.28304682E-04 leakb102
  1 17 12 leakb81 5.44537000E-03 leakb81
  1 17 12 leakb102 5.77620955E-04 leakb102
  1 17 13 leakb81 3.15232100E-02 leakb81
  1 17 13 leakb102 6.02734910E-04 leakb102
  1 17 17 leakb05 8.49872519E-04 leakb05
  1 17 17 leakb81 0.00000000E+00 leakb81
  1 17 18 leakb05 2.19967000E-03 leakb05
  1 17 19 leakb05 4.09939000E-03 leakb05
  1 17 19 leakb93 6.53739000E-03 leakb93
  1 17 19 leakb101 6.53739000E-03 leakb101
  1 17 20 leakb05 5.24921000E-03 leakb05
  1 17 20 leakb93 1.79778300E-02 leakb93
  1 17 20 leakb101 1.79778300E-02 leakb101
  1 17 21 leakb93 2.72391426E-04 leakb93
  1 17 21 leakb101 2.72391426E-04 leakb101
  1 17 21 leakb102 2.51139546E-04 leakb102
  1 17 22 leakb93 8.06960000E-03 leakb93
  1 17 22 leakb97 3.21409057E-04 leakb97
  1 17 22 leakb101 8.06960000E-03 leakb101
  1 17 22 leakb102 1.27076600E-02 leakb102
  1 17 23 leakb93 7.25242000E-03 leakb93
  1 17 23 leakb96 1.37460000E-02 leakb96
  1 17 23 leakb97 4.41937000E-03 leakb97
  1 17 23 leakb101 7.25242000E-03 leakb101
  1 17 23 leakb102 3.06892500E-02 leakb102
  1 17 24 leakb96 2.12003000E-02 leakb96
  1 17 24 leakb97 6.20319000E-03 leakb97
  1 17 24 leakb102 5.97712000E-03 leakb102
  1 17 25 leakb95 1.02207900E-02 leakb95
  1 17 25 leakb96 2.15012100E-02 leakb96
  1 17 25 leakb97 6.41211000E-03 leakb97
  1 17 26 leakb95 2.88634000E-03 leakb95
  1 17 26 leakb96 3.01181100E-02 leakb96
  1 17 27 leakb95 2.47118000E-03 leakb95
  1 17 27 leakb96 6.81282000E-02 leakb96
  1 17 28 leakb95 9.98356000E-03 leakb95
  1 17 28 leakb96 1.77261900E-02 leakb96
  1 17 29 leakb95 1.16441900E-02 leakb95
  1 17 29 leakb96 5.62150000E-03 leakb96
  1 17 30 leakb95 8.95555000E-03 leakb95
  1 17 30 leakb96 8.60322000E-03 leakb96
  1 17 30 leakb97 5.48002000E-03 leakb97
  1 17 31 leakb95 1.19802700E-02 leakb95
  1 17 31 leakb96 1.89571700E-02 leakb96
  1 17 31 leakb97 9.44943000E-03 leakb97
  1 17 32 leakb96 2.00513800E-02 leakb96
  1 17 33 leakb96 6.86616000E-03 leakb96
  1 17 33 leakb102 3.74700200E-02 leakb102
  1 17 34 leakb93 4.18802000E-03 leakb93
  1 17 34 leakb101 4.18802000E-03 leakb101
  1 17 34 leakb102 7.45884000E-03 leakb102
  1 17 38 leakb93 2.38342498E-04 leakb93
  1 17 38 leakb101 2.38342498E-04 leakb101
  1 18 6 leakb25 1.94942000E-03 leakb25
  1 18 6 leakb62 4.33978300E-01 leakb62
  1 18 7 leakb25 1.85944200E-02 leakb25
  1 18 7 leakb62 1.58942050E-01 leakb62
  1 18 7 leakb97 3.63995800E-02 leakb97
  1 18 8 leakb25 2.85914200E-02 leakb25
  1 18 8 leakb102 4.77165137E-04 leakb102
  1 18 9 leakb25 3.99880000E-03 leakb25
  1 18 9 leakb102 7.98624000E-03 leakb102
  1 18 10 leakb81 1.70854800E-02 leakb81
  1 18 10 leakb102 2.28537000E-03 leakb102
  1 18 11 leakb81 6.59939100E-02 leakb81
  1 18 12 leakb81 4.31633100E-02 leakb81
  1 18 16 leakb05 9.99850022E-05 leakb05
  1 18 16 leakb81 1.19898000E-03 leakb81
  1 18 17 leakb05 2.34965000E-03 leakb05
  1 18 17 leakb81 1.66358600E-02 leakb81
  1 18 18 leakb05 7.54887000E-03 leakb05
  1 18 18 leakb81 8.79253000E-03 leakb81
  1 18 19 leakb05 9.84852000E-03 leakb05
  1 18 19 leakb93 6.33310000E-03 leakb93
  1 18 19 leakb101 6.33310000E-03 leakb101
  1 18 20 leakb05 3.24951000E-03 leakb05
  1 18 20 leakb93 7.25242000E-03 leakb93
  1 18 20 leakb101 7.25242000E-03 leakb101
  1 18 21 leakb05 0.00000000E+00 leakb05
  1 18 22 leakb05 4.49932510E-04 leakb05
  1 18 23 leakb93 6.80978566E-05 leakb93
  1 18 23 leakb101 6.80978566E-05 leakb101
  1 18 23 leakb102 5.02279091E-05 leakb102
  1 18 24 leakb93 3.40489283E-04 leakb93
  1 18 24 leakb97 7.71381738E-04 leakb97
  1 18 24 leakb101 3.40489283E-04 leakb101
  1 18 24 leakb102 4.94745000E-03 leakb102
  1 18 25 leakb93 2.65582000E-03 leakb93
  1 18 25 leakb96 1.57293000E-03 leakb96
  1 18 25 leakb97 1.91238000E-03 leakb97
  1 18 25 leakb101 2.65582000E-03 leakb101
  1 18 25 leakb102 2.79518300E-02 leakb102
  1 18 26 leakb93 4.63065000E-03 leakb93
  1 18 26 leakb96 6.52878000E-03 leakb96
  1 18 26 leakb97 3.23016000E-03 leakb97
  1 18 26 leakb101 4.63065000E-03 leakb101
  1 18 26 leakb102 2.99358300E-02 leakb102
  1 18 27 leakb96 2.22329600E-02 leakb96
  1 18 27 leakb97 2.08916000E-03 leakb97
  1 18 28 leakb95 1.97694226E-04 leakb95
  1 18 28 leakb96 8.01964000E-03 leakb96
  1 18 29 leakb96 1.78082500E-02 leakb96
  1 18 30 leakb96 1.58523500E-02 leakb96
  1 18 31 leakb96 1.93811800E-02 leakb96
  1 18 32 leakb96 2.05848100E-02 leakb96
  1 18 32 leakb102 4.04335000E-03 leakb102
  1 18 33 leakb93 1.02146785E-04 leakb93
  1 18 33 leakb96 7.45430000E-03 leakb96
  1 18 33 leakb101 1.02146785E-04 leakb101
  1 18 33 leakb102 2.67212500E-02 leakb102
  1 18 37 leakb93 8.98892000E-03 leakb93
  1 18 37 leakb101 8.98892000E-03 leakb101
  1 19 6 leakb25 1.81945400E-02 leakb25
  1 19 6 leakb62 1.40342980E-01 leakb62
  1 19 6 leakb97 6.72869900E-02 leakb97
  1 19 7 leakb25 2.71918400E-02 leakb25
  1 19 8 leakb25 2.13935800E-02 leakb25
  1 19 8 leakb102 6.07758000E-03 leakb102
  1 19 9 leakb81 2.39796000E-03 leakb81
  1 19 9 leakb102 1.26072100E-02 leakb102
  1 19 10 leakb81 4.99575400E-02 leakb81
  1 19 10 leakb102 5.92689000E-03 leakb102
  1 19 11 leakb81 6.60938200E-02 leakb81
  1 19 12 leakb81 1.27891300E-02 leakb81
  1 19 15 leakb81 0.00000000E+00 leakb81
  1 19 17 leakb05 3.29951000E-03 leakb05
  1 19 17 leakb81 4.99575361E-04 leakb81
  1 19 18 leakb05 9.19862000E-03 leakb05
  1 19 19 leakb05 7.59886000E-03 leakb05
  1 19 20 leakb05 2.24966000E-03 leakb05
  1 19 20 leakb93 8.61438000E-03 leakb93
  1 19 20 leakb101 8.61438000E-03 leakb101
  1 19 21 leakb05 1.09984000E-03 leakb05
  1 19 21 leakb93 1.94079000E-03 leakb93
  1 19 21 leakb101 1.94079000E-03 leakb101
  1 19 22 leakb05 3.14953000E-03 leakb05
  1 19 22 leakb93 0.00000000E+00 leakb93
  1 19 22 leakb101 0.00000000E+00 leakb101
  1 19 26 leakb93 6.80978566E-05 leakb93
  1 19 26 leakb97 2.08915887E-04 leakb97
  1 19 26 leakb101 6.80978566E-05 leakb101
  1 19 26 leakb102 2.05934000E-03 leakb102
  1 19 27 leakb93 3.74538211E-04 leakb93
  1 19 27 leakb96 1.61395800E-02 leakb96
  1 19 27 leakb97 2.63555000E-03 leakb97
  1 19 27 leakb101 3.74538211E-04 leakb101
  1 19 27 leakb102 2.00409400E-02 leakb102
  1 19 28 leakb96 7.33120000E-03 leakb96
  1 19 28 leakb97 1.73561000E-03 leakb97
  1 19 28 leakb102 1.63240700E-02 leakb102
  1 19 29 leakb96 2.06121600E-02 leakb96
  1 19 29 leakb97 1.60704529E-04 leakb97
  1 19 29 leakb102 2.88810000E-03 leakb102
  1 19 30 leakb96 1.70423100E-02 leakb96
  1 19 30 leakb97 2.41056793E-04 leakb97
  1 19 30 leakb102 1.25570000E-03 leakb102
  1 19 31 leakb93 5.78831781E-04 leakb93
  1 19 31 leakb96 1.44982700E-02 leakb96
  1 19 31 leakb101 5.78831781E-04 leakb101
  1 19 31 leakb102 1.16528700E-02 leakb102
  1 19 32 leakb93 2.38342000E-03 leakb93
  1 19 32 leakb96 6.23699000E-03 leakb96
  1 19 32 leakb101 2.38342000E-03 leakb101
  1 19 32 leakb102 1.91368300E-02 leakb102
  1 19 33 leakb93 1.53220000E-03 leakb93
  1 19 33 leakb101 1.53220000E-03 leakb101
  1 19 33 leakb102 2.36071000E-03 leakb102
  1 19 36 leakb93 2.04804300E-02 leakb93
  1 19 36 leakb101 2.04804300E-02 leakb101
  1 19 37 leakb93 1.02147000E-03 leakb93
  1 19 37 leakb101 1.02147000E-03 leakb101
  1 20 5 leakb88 1.14676000E-03 leakb88
  1 20 6 leakb25 1.46456100E-02 leakb25
  1 20 6 leakb88 2.36750000E-03 leakb88
  1 20 7 leakb25 2.80915700E-02 leakb25
  1 20 8 leakb05 2.29966000E-03 leakb05
  1 20 8 leakb25 1.19964000E-02 leakb25
  1 20 8 leakb102 8.71454000E-03 leakb102
  1 20 9 leakb05 3.64945000E-03 leakb05
  1 20 9 leakb81 2.27306800E-02 leakb81
  1 20 9 leakb102 7.05702000E-03 leakb102
  1 20 10 leakb05 3.84942000E-03 leakb05
  1 20 10 leakb81 1.95833500E-02 leakb81
  1 20 10 leakb102 1.15524000E-03 leakb102
  1 20 11 leakb05 5.09924000E-03 leakb05
  1 20 11 leakb81 8.01318900E-02 leakb81
  1 20 12 leakb05 3.69945000E-03 leakb05
  1 20 12 leakb81 6.39456500E-02 leakb81
  1 20 13 leakb81 8.49278114E-04 leakb81
  1 20 15 leakb81 4.49118200E-02 leakb81
  1 20 16 leakb81 1.40880300E-02 leakb81
  1 20 17 leakb81 5.99490433E-04 leakb81
  1 20 18 leakb05 1.94971000E-03 leakb05
  1 20 18 leakb81 1.14902300E-02 leakb81
  1 20 19 leakb05 1.07983800E-02 leakb05
  1 20 20 leakb05 4.44933000E-03 leakb05
  1 20 20 leakb93 1.15766000E-03 leakb93
  1 20 20 leakb101 1.15766000E-03 leakb101
  1 20 21 leakb05 3.99940000E-03 leakb05
  1 20 21 leakb93 6.46930000E-03 leakb93
  1 20 21 leakb101 6.46930000E-03 leakb101
  1 20 22 leakb05 7.24891000E-03 leakb05
  1 20 22 leakb93 6.06071000E-03 leakb93
  1 20 22 leakb101 6.06071000E-03 leakb101
  1 20 24 leakb93 2.92821000E-03 leakb93
  1 20 24 leakb101 2.92821000E-03 leakb101
  1 20 25 leakb93 3.40489283E-04 leakb93
  1 20 25 leakb101 3.40489283E-04 leakb101
  1 20 28 leakb102 2.98856000E-03 leakb102
  1 20 29 leakb93 3.40489000E-03 leakb93
  1 20 29 leakb96 1.61396000E-03 leakb96
  1 20 29 leakb97 1.78382000E-03 leakb97
  1 20 29 leakb101 3.40489000E-03 leakb101
  1 20 29 leakb102 1.35866500E-02 leakb102
  1 20 30 leakb93 3.98372000E-03 leakb93
  1 20 30 leakb96 6.56525476E-04 leakb96
  1 20 30 leakb97 4.49972680E-04 leakb97
  1 20 30 leakb101 3.98372000E-03 leakb101
  1 20 30 leakb102 1.28081200E-02 leakb102
  1 20 31 leakb93 1.77054000E-03 leakb93
  1 20 31 leakb101 1.77054000E-03 leakb101
  1 20 31 leakb102 2.51140000E-03 leakb102
  1 20 33 leakb93 6.80978566E-05 leakb93
  1 20 33 leakb101 6.80978566E-05 leakb101
  1 20 34 leakb93 4.08587140E-04 leakb93
  1 20 34 leakb101 4.08587140E-04 leakb101
  1 20 36 leakb93 8.02533200E-02 leakb93
  1 20 36 leakb101 8.02533200E-02 leakb101
  1 20 37 leakb93 2.49238200E-02 leakb93
  1 20 37 leakb101 2.49238200E-02 leakb101
  1 21 5 leakb62 1.57992100E-02 leakb62
  1 21 5 leakb88 1.89307100E-02 leakb88
  1 21 6 leakb25 3.49895031E-04 leakb25
  1 21 6 leakb88 1.56846500E-02 leakb88
  1 21 7 leakb25 1.50454900E-02 leakb25
  1 21 7 leakb88 2.88538000E-03 leakb88
  1 21 8 leakb05 8.99865020E-04 leakb05
  1 21 8 leakb25 2.83415000E-02 leakb25
  1 21 9 leakb05 6.64900000E-03 leakb05
  1 21 9 leakb25 2.43427000E-02 leakb25
  1 21 10 leakb05 1.17482400E-02 leakb05
  1 21 10 leakb25 3.24903000E-03 leakb25
  1 21 11 leakb05 6.89897000E-03 leakb05
  1 21 11 leakb81 3.89669000E-03 leakb81
  1 21 12 leakb05 5.84912000E-03 leakb05
  1 21 12 leakb81 7.73342700E-02 leakb81
  1 21 13 leakb81 4.19643000E-03 leakb81
  1 21 16 leakb05 1.74974000E-03 leakb05
  1 21 16 leakb81 1.74351800E-02 leakb81
  1 21 17 leakb05 1.59976000E-03 leakb05
  1 21 17 leakb81 4.13648400E-02 leakb81
  1 21 18 leakb05 3.84942000E-03 leakb05
  1 21 18 leakb81 7.79338000E-03 leakb81
  1 21 19 leakb05 8.64870000E-03 leakb05
  1 21 20 leakb05 9.74854000E-03 leakb05
  1 21 21 leakb05 9.79853000E-03 leakb05
  1 21 22 leakb05 8.49873000E-03 leakb05
  1 21 23 leakb05 9.99850022E-04 leakb05
  1 21 24 leakb05 1.84972000E-03 leakb05
  1 21 24 leakb93 1.99867200E-02 leakb93
  1 21 24 leakb101 1.99867200E-02 leakb101
  1 21 25 leakb93 4.97114000E-03 leakb93
  1 21 25 leakb101 4.97114000E-03 leakb101
  1 21 34 leakb93 7.32052000E-03 leakb93
  1 21 34 leakb101 7.32052000E-03 leakb101
  1 21 35 leakb93 3.30275000E-03 leakb93
  1 21 35 leakb101 3.30275000E-03 leakb101
  1 21 36 leakb93 4.14886200E-02 leakb93
  1 21 36 leakb101 4.14886200E-02 leakb101
  1 22 5 leakb62 4.34978300E-02 leakb62
  1 22 5 leakb88 5.58303400E-02 leakb88
  1 22 6 leakb88 4.98407000E-02 leakb88
  1 22 7 leakb25 3.99880036E-04 leakb25
  1 22 7 leakb88 3.57282100E-02 leakb88
  1 22 8 leakb25 1.86444100E-02 leakb25
  1 22 8 leakb88 1.50557900E-02 leakb88
  1 22 9 leakb25 2.70918700E-02 leakb25
  1 22 10 leakb05 1.79973000E-03 leakb05
  1 22 10 leakb25 2.57422800E-02 leakb25
  1 22 11 leakb05 8.09879000E-03 leakb05
  1 22 11 leakb25 1.44956500E-02 leakb25
  1 22 12 leakb05 1.11483300E-02 leakb05
  1 22 12 leakb25 2.29931000E-03 leakb25
  1 22 13 leakb05 3.79943000E-03 leakb05
  1 22 14 leakb05 3.99940009E-04 leakb05
  1 22 14 leakb81 7.99320578E-04 leakb81
  1 22 15 leakb05 9.99850022E-05 leakb05
  1 22 15 leakb81 6.99405505E-04 leakb81
  1 22 16 leakb05 0.00000000E+00 leakb05
  1 22 17 leakb05 3.39949000E-03 leakb05
  1 22 17 leakb81 9.59185000E-03 leakb81
  1 22 18 leakb05 5.99910000E-03 leakb05
  1 22 19 leakb05 1.07483900E-02 leakb05
  1 22 20 leakb05 9.99850000E-03 leakb05
  1 22 21 leakb05 7.84882000E-03 leakb05
  1 22 22 leakb05 8.84867000E-03 leakb05
  1 22 23 leakb05 2.34965000E-03 leakb05
  1 22 24 leakb05 6.59901000E-03 leakb05
  1 22 24 leakb93 1.22235700E-02 leakb93
  1 22 24 leakb101 1.22235700E-02 leakb101
  1 22 25 leakb05 2.94956000E-03 leakb05
  1 22 25 leakb93 1.08616100E-02 leakb93
  1 22 25 leakb101 1.08616100E-02 leakb101
  1 22 26 leakb93 6.57144000E-03 leakb93
  1 22 26 leakb101 6.57144000E-03 leakb101
  1 22 33 leakb93 4.32421000E-03 leakb93
  1 22 33 leakb101 4.32421000E-03 leakb101
  1 22 34 leakb93 3.64324000E-03 leakb93
  1 22 34 leakb101 3.64324000E-03 leakb101
  1 22 35 leakb93 3.74538211E-04 leakb93
  1 22 35 leakb101 3.74538211E-04 leakb101
  1 23 5 leakb62 1.47892610E-01 leakb62
  1 23 5 leakb88 4.10335000E-02 leakb88
  1 23 5 leakb90 1.11992882E-04 leakb90
  1 23 6 leakb88 5.31638300E-02 leakb88
  1 23 6 leakb90 3.35978647E-04 leakb90
  1 23 7 leakb88 9.53379200E-02 leakb88
  1 23 7 leakb90 2.18386000E-03 leakb90
  1 23 8 leakb25 2.24933000E-03 leakb25
  1 23 8 leakb88 5.16718100E-02 leakb88
  1 23 9 leakb25 2.19934000E-02 leakb25
  1 23 9 leakb88 8.83371600E-02 leakb88
  1 23 10 leakb25 2.72418300E-02 leakb25
  1 23 11 leakb25 2.76916900E-02 leakb25
  1 23 12 leakb05 7.24891000E-03 leakb05
  1 23 12 leakb25 1.75947200E-02 leakb25
  1 23 13 leakb05 1.14982800E-02 leakb05
  1 23 14 leakb05 9.69855000E-03 leakb05
  1 23 14 leakb81 1.24894000E-03 leakb81
  1 23 15 leakb05 5.39919000E-03 leakb05
  1 23 15 leakb81 1.64860000E-03 leakb81
  1 23 16 leakb05 8.29876000E-03 leakb05
  1 23 16 leakb81 0.00000000E+00 leakb81
  1 23 17 leakb05 8.94866000E-03 leakb05
  1 23 17 leakb81 7.99320578E-04 leakb81
  1 23 18 leakb05 8.89867000E-03 leakb05
  1 23 19 leakb05 7.49888000E-03 leakb05
  1 23 20 leakb05 7.04894000E-03 leakb05
  1 23 21 leakb05 9.89852000E-03 leakb05
  1 23 22 leakb05 8.84867000E-03 leakb05
  1 23 23 leakb05 1.02984600E-02 leakb05
  1 23 24 leakb05 4.89927000E-03 leakb05
  1 23 24 leakb93 9.53369993E-04 leakb93
  1 23 24 leakb101 9.53369993E-04 leakb101
  1 23 25 leakb05 1.69975000E-03 leakb05
  1 23 25 leakb93 1.02147000E-03 leakb93
  1 23 25 leakb101 1.02147000E-03 leakb101
  1 23 32 leakb93 8.00150000E-03 leakb93
  1 23 32 leakb101 8.00150000E-03 leakb101
  1 23 33 leakb93 7.88233000E-03 leakb93
  1 23 33 leakb101 7.88233000E-03 leakb101
  1 23 40 leakb93 4.42636068E-04 leakb93
  1 23 40 leakb101 4.42636068E-04 leakb101
  1 24 5 leakb62 4.03979800E-02 leakb62
  1 24 5 leakb88 1.34651300E-02 leakb88
  1 24 5 leakb90 5.22633000E-03 leakb90
  1 24 6 leakb88 4.37431700E-02 leakb88
  1 24 6 leakb90 8.84744000E-03 leakb90
  1 24 7 leakb88 5.05867000E-03 leakb88
  1 24 7 leakb90 1.33084900E-02 leakb90
  1 24 8 leakb88 3.97341500E-02 leakb88
  1 24 8 leakb90 6.32760000E-03 leakb90
  1 24 9 leakb25 3.19904000E-03 leakb25
  1 24 9 leakb88 1.01700560E-01 leakb88
  1 24 9 leakb90 3.54644127E-04 leakb90
  1 24 10 leakb25 2.22433300E-02 leakb25
  1 24 10 leakb88 1.59990900E-02 leakb88
  1 24 11 leakb25 2.35929200E-02 leakb25
  1 24 12 leakb05 1.54977000E-03 leakb05
  1 24 12 leakb25 2.78416500E-02 leakb25
  1 24 13 leakb05 9.49858000E-03 leakb05
  1 24 13 leakb25 1.01969400E-02 leakb25
  1 24 14 leakb05 1.02484600E-02 leakb05
  1 24 14 leakb25 6.44807000E-03 leakb25
  1 24 15 leakb05 8.69870000E-03 leakb05
  1 24 15 leakb25 4.84855000E-03 leakb25
  1 24 16 leakb05 1.07483900E-02 leakb05
  1 24 16 leakb25 1.74948000E-03 leakb25
  1 24 17 leakb05 9.64855000E-03 leakb05
  1 24 18 leakb05 8.99865000E-03 leakb05
  1 24 19 leakb05 5.34920000E-03 leakb05
  1 24 20 leakb05 7.94881000E-03 leakb05
  1 24 21 leakb05 1.17482400E-02 leakb05
  1 24 22 leakb05 1.18482200E-02 leakb05
  1 24 23 leakb05 8.79868000E-03 leakb05
  1 24 24 leakb05 1.15482700E-02 leakb05
  1 24 25 leakb05 1.03484500E-02 leakb05
  1 24 26 leakb05 8.39874000E-03 leakb05
  1 24 27 leakb05 1.79973000E-03 leakb05
  1 24 27 leakb93 1.22576000E-03 leakb93
  1 24 27 leakb101 1.22576000E-03 leakb101
  1 24 28 leakb05 5.09924000E-03 leakb05
  1 24 28 leakb93 3.16995500E-02 leakb93
  1 24 28 leakb101 3.16995500E-02 leakb101
  1 24 29 leakb93 1.09978000E-02 leakb93
  1 24 29 leakb101 1.09978000E-02 leakb101
  1 24 31 leakb93 2.24723000E-03 leakb93
  1 24 31 leakb101 2.24723000E-03 leakb101
  1 24 32 leakb93 6.70764000E-03 leakb93
  1 24 32 leakb101 6.70764000E-03 leakb101
  1 24 33 leakb93 7.35457000E-03 leakb93
  1 24 33 leakb101 7.35457000E-03 leakb101
  1 24 40 leakb93 0.00000000E+00 leakb93
  1 24 40 leakb101 0.00000000E+00 leakb101