# File generated by Flopy version 3.8.0 on 08/20/2024 at 11:26:03.
BEGIN options
  auxiliary  multiplier
  AUXMULTNAME  multiplier
  BOUNDNAMES
  SAVE_FLOWS
  TS6  FILEIN  mf6-tv_hist-pumping_rates-semi.ts
END options

BEGIN dimensions
  MAXBOUND  5620
END dimensions

BEGIN period  1
  1 5 9 pump_sem94 7.07806000E-03 pump_sem94
  1 5 9 pump_sem97 6.35826000E-03 pump_sem97
  5 5 9 pump_sem94 1.17898600E-02 pump_sem94
  5 5 9 pump_sem97 1.05908900E-02 pump_sem97
  1 5 10 pump_sem94 4.79136000E-03 pump_sem94
  1 5 10 pump_sem97 2.86940000E-03 pump_sem97
  5 5 10 pump_sem94 3.29444900E-02 pump_sem94
  5 5 10 pump_sem97 1.97294700E-02 pump_sem97
  1 5 11 pump_sem94 5.48411000E-03 pump_sem94
  5 5 11 pump_sem94 3.22517400E-02 pump_sem94
  1 5 12 pump_sem94 5.28148000E-03 pump_sem94
  5 5 12 pump_sem94 3.24543700E-02 pump_sem94
  1 5 13 pump_sem94 4.86725000E-03 pump_sem94
  5 5 13 pump_sem94 3.28686000E-02 pump_sem94
  1 6 9 pump_sem97 4.51478000E-03 pump_sem97
  5 6 9 pump_sem97 6.78465000E-03 pump_sem97
  1 6 10 pump_sem94 2.30782400E-02 pump_sem94
  1 6 10 pump_sem97 1.72760800E-02 pump_sem97
  1 6 10 pump_sem102 4.85376000E-03 pump_sem102
  5 6 10 pump_sem94 1.46576100E-02 pump_sem94
  5 6 10 pump_sem97 1.09725000E-02 pump_sem97
  5 6 10 pump_sem102 3.08275000E-03 pump_sem102
  1 6 11 pump_sem94 2.30782400E-02 pump_sem94
  1 6 11 pump_sem97 1.72760800E-02 pump_sem97
  1 6 11 pump_sem102 4.85376000E-03 pump_sem102
  5 6 11 pump_sem94 1.46576100E-02 pump_sem94
  5 6 11 pump_sem97 1.09725000E-02 pump_sem97
  5 6 11 pump_sem102 3.08275000E-03 pump_sem102
  1 6 12 pump_sem94 7.04295000E-03 pump_sem94
  1 6 12 pump_sem97 1.05445000E-03 pump_sem97
  5 6 12 pump_sem94 3.06929000E-02 pump_sem94
  5 6 12 pump_sem97 4.59526000E-03 pump_sem97
  1 6 13 pump_sem94 6.15436000E-03 pump_sem94
  1 6 13 pump_sem97 9.21420000E-04 pump_sem97
  5 6 13 pump_sem94 3.15814900E-02 pump_sem94
  5 6 13 pump_sem97 4.72830000E-03 pump_sem97
  1 6 14 pump_sem94 2.67207000E-03 pump_sem94
  5 6 14 pump_sem94 1.61958600E-02 pump_sem94
  1 7 9 pump_sem97 4.85883000E-03 pump_sem97
  5 7 9 pump_sem97 6.44060000E-03 pump_sem97
  1 7 10 pump_sem94 2.30782400E-02 pump_sem94
  1 7 10 pump_sem97 1.72760800E-02 pump_sem97
  1 7 10 pump_sem102 4.85376000E-03 pump_sem102
  5 7 10 pump_sem94 1.46576100E-02 pump_sem94
  5 7 10 pump_sem97 1.09725000E-02 pump_sem97
  5 7 10 pump_sem102 3.08275000E-03 pump_sem102
  1 7 11 pump_sem94 2.30782400E-02 pump_sem94
  1 7 11 pump_sem97 1.72760800E-02 pump_sem97
  1 7 11 pump_sem102 4.85376000E-03 pump_sem102
  5 7 11 pump_sem94 1.46576100E-02 pump_sem94
  5 7 11 pump_sem97 1.09725000E-02 pump_sem97
  5 7 11 pump_sem102 3.08275000E-03 pump_sem102
  1 7 12 pump_sem94 3.99825000E-03 pump_sem94
  1 7 12 pump_sem97 1.19722000E-03 pump_sem97
  5 7 12 pump_sem94 1.48696700E-02 pump_sem94
  5 7 12 pump_sem97 4.45250000E-03 pump_sem97
  1 7 13 pump_sem94 3.92423000E-03 pump_sem94
  1 7 13 pump_sem97 1.17505000E-03 pump_sem97
  5 7 13 pump_sem94 1.49437000E-02 pump_sem94
  5 7 13 pump_sem97 4.47467000E-03 pump_sem97
  1 7 14 pump_sem94 8.45427000E-03 pump_sem94
  1 7 14 pump_sem97 1.26575000E-03 pump_sem97
  5 7 14 pump_sem94 2.92815800E-02 pump_sem94
  5 7 14 pump_sem97 4.38397000E-03 pump_sem97
  1 7 15 pump_sem94 9.01069000E-03 pump_sem94
  1 7 15 pump_sem95 1.95724000E-03 pump_sem95
  1 7 15 pump_sem97 1.34906000E-03 pump_sem97
  5 7 15 pump_sem94 2.87251500E-02 pump_sem94
  5 7 15 pump_sem95 6.23948000E-03 pump_sem95
  5 7 15 pump_sem97 4.30066000E-03 pump_sem97
  1 7 16 pump_sem94 3.77358500E-02 pump_sem94
  1 7 16 pump_sem95 8.19672000E-03 pump_sem95
  1 8 9 pump_sem97 9.99479000E-03 pump_sem97
  5 8 9 pump_sem97 6.95437000E-03 pump_sem97
  1 8 10 pump_sem94 2.29272100E-02 pump_sem94
  1 8 10 pump_sem97 1.71630300E-02 pump_sem97
  1 8 10 pump_sem102 4.82199000E-03 pump_sem102
  5 8 10 pump_sem94 1.48086300E-02 pump_sem94
  5 8 10 pump_sem97 1.10855600E-02 pump_sem97
  5 8 10 pump_sem102 3.11451000E-03 pump_sem102
  1 8 11 pump_sem94 2.29272100E-02 pump_sem94
  1 8 11 pump_sem97 1.71630300E-02 pump_sem97
  1 8 11 pump_sem102 4.82199000E-03 pump_sem102
  5 8 11 pump_sem94 1.48086300E-02 pump_sem94
  5 8 11 pump_sem97 1.10855600E-02 pump_sem97
  5 8 11 pump_sem102 3.11451000E-03 pump_sem102
  1 8 12 pump_sem97 1.30502000E-03 pump_sem97
  5 8 12 pump_sem97 4.34470000E-03 pump_sem97
  1 8 13 pump_sem97 1.47647000E-03 pump_sem97
  5 8 13 pump_sem97 4.17325000E-03 pump_sem97
  1 8 14 pump_sem97 4.86089000E-03 pump_sem97
  5 8 14 pump_sem97 7.88830000E-04 pump_sem97
  1 8 15 pump_sem97 4.76195000E-03 pump_sem97
  5 8 15 pump_sem97 8.87770000E-04 pump_sem97
  1 8 16 pump_sem94 3.77358500E-02 pump_sem94
  1 8 16 pump_sem97 5.64972000E-03 pump_sem97
  1 8 17 pump_sem94 5.66037700E-02 pump_sem94
  1 9 9 pump_sem97 1.08145600E-02 pump_sem97
  5 9 9 pump_sem97 6.13460000E-03 pump_sem97
  1 9 10 pump_sem97 8.78613000E-03 pump_sem97
  4 9 10 pump_sem97 3.78573000E-03 pump_sem97
  5 9 10 pump_sem97 4.37730000E-03 pump_sem97
  1 9 11 pump_sem97 6.20041000E-03 pump_sem97
  4 9 11 pump_sem97 2.36718000E-03 pump_sem97
  5 9 11 pump_sem97 2.73184000E-03 pump_sem97
  1 9 12 pump_sem97 7.52202000E-03 pump_sem97
  4 9 12 pump_sem97 2.02655000E-03 pump_sem97
  5 9 12 pump_sem97 1.75087000E-03 pump_sem97
  1 9 13 pump_sem97 8.80290000E-03 pump_sem97
  4 9 13 pump_sem97 2.49653000E-03 pump_sem97
  1 9 14 pump_sem97 1.12994400E-02 pump_sem97
  1 9 15 pump_sem97 1.12994400E-02 pump_sem97
  1 9 16 pump_sem94 3.77358500E-02 pump_sem94
  1 9 16 pump_sem97 1.12994400E-02 pump_sem97
  1 9 17 pump_sem94 3.77358500E-02 pump_sem94
  1 9 17 pump_sem97 5.64972000E-03 pump_sem97
  1 9 18 pump_sem94 4.61425200E-02 pump_sem94
  1 9 18 pump_sem95 6.68184000E-03 pump_sem95
  4 9 18 pump_sem94 1.04612500E-02 pump_sem94
  4 9 18 pump_sem95 1.51488000E-03 pump_sem95
  1 10 8 pump_sem97 2.96048000E-03 pump_sem97
  5 10 8 pump_sem97 2.68923000E-03 pump_sem97
  1 10 9 pump_sem97 3.76407000E-03 pump_sem97
  5 10 9 pump_sem97 1.88564000E-03 pump_sem97
  1 10 10 pump_sem97 8.13956000E-03 pump_sem97
  1 10 10 pump_sem102 3.81138000E-03 pump_sem102
  4 10 10 pump_sem97 5.95626000E-03 pump_sem97
  4 10 10 pump_sem102 2.78904000E-03 pump_sem102
  5 10 10 pump_sem97 2.85333000E-03 pump_sem97
  5 10 10 pump_sem102 1.33608000E-03 pump_sem102
  1 10 11 pump_sem97 2.21201000E-03 pump_sem97
  1 10 11 pump_sem102 3.10735000E-03 pump_sem102
  4 10 11 pump_sem97 2.79568000E-03 pump_sem97
  4 10 11 pump_sem102 3.92726000E-03 pump_sem102
  5 10 11 pump_sem97 6.42030000E-04 pump_sem97
  5 10 11 pump_sem102 9.01900000E-04 pump_sem102
  1 10 12 pump_sem97 2.83828000E-03 pump_sem97
  1 10 12 pump_sem102 3.98710000E-03 pump_sem102
  4 10 12 pump_sem97 2.81144000E-03 pump_sem97
  4 10 12 pump_sem102 3.94940000E-03 pump_sem102
  1 10 13 pump_sem97 3.49636000E-03 pump_sem97
  4 10 13 pump_sem97 2.15336000E-03 pump_sem97
  1 10 14 pump_sem97 8.18965000E-03 pump_sem97
  4 10 14 pump_sem97 3.10978000E-03 pump_sem97
  1 10 15 pump_sem97 8.06309000E-03 pump_sem97
  4 10 15 pump_sem97 3.23635000E-03 pump_sem97
  1 10 16 pump_sem97 8.99632000E-03 pump_sem97
  4 10 16 pump_sem97 2.30311000E-03 pump_sem97
  1 10 17 pump_sem94 1.39213900E-02 pump_sem94
  1 10 17 pump_sem97 8.33711000E-03 pump_sem97
  4 10 17 pump_sem94 4.94653000E-03 pump_sem94
  4 10 17 pump_sem97 2.96233000E-03 pump_sem97
  1 10 18 pump_sem94 1.17474300E-02 pump_sem94
  1 10 18 pump_sem97 3.51759000E-03 pump_sem97
  4 10 18 pump_sem94 7.12049000E-03 pump_sem94
  4 10 18 pump_sem97 2.13213000E-03 pump_sem97
  1 10 19 pump_sem94 3.37047500E-02 pump_sem94
  1 10 19 pump_sem95 4.88074000E-03 pump_sem95
  4 10 19 pump_sem94 2.28990300E-02 pump_sem94
  4 10 19 pump_sem95 3.31598000E-03 pump_sem95
  1 11 8 pump_sem97 6.54991000E-03 pump_sem97
  5 11 8 pump_sem97 4.74952000E-03 pump_sem97
  1 11 9 pump_sem97 3.68758000E-03 pump_sem97
  1 11 9 pump_sem102 2.59008000E-03 pump_sem102
  4 11 9 pump_sem97 5.65945000E-03 pump_sem97
  4 11 9 pump_sem102 3.97509000E-03 pump_sem102
  5 11 9 pump_sem97 1.95241000E-03 pump_sem97
  5 11 9 pump_sem102 1.37133000E-03 pump_sem102
  1 11 10 pump_sem97 1.99284000E-03 pump_sem97
  1 11 10 pump_sem102 2.79946000E-03 pump_sem102
  4 11 10 pump_sem97 2.86481000E-03 pump_sem97
  4 11 10 pump_sem102 4.02437000E-03 pump_sem102
  5 11 10 pump_sem97 7.92080000E-04 pump_sem97
  5 11 10 pump_sem102 1.11268000E-03 pump_sem102
  1 11 11 pump_sem97 1.89443000E-03 pump_sem97
  1 11 11 pump_sem102 2.66122000E-03 pump_sem102
  4 11 11 pump_sem97 3.13490000E-03 pump_sem97
  4 11 11 pump_sem102 4.40379000E-03 pump_sem102
  5 11 11 pump_sem97 6.20390000E-04 pump_sem97
  5 11 11 pump_sem102 8.71500000E-04 pump_sem102
  1 11 12 pump_sem97 2.24284000E-03 pump_sem97
  1 11 12 pump_sem102 3.15066000E-03 pump_sem102
  4 11 12 pump_sem97 3.40687000E-03 pump_sem97
  4 11 12 pump_sem102 4.78585000E-03 pump_sem102
  1 11 13 pump_sem97 2.74106000E-03 pump_sem97
  1 11 13 pump_sem102 3.85054000E-03 pump_sem102
  4 11 13 pump_sem97 2.90866000E-03 pump_sem97
  4 11 13 pump_sem102 4.08597000E-03 pump_sem102
  1 11 14 pump_sem97 3.50551000E-03 pump_sem97
  1 11 14 pump_sem102 4.92441000E-03 pump_sem102
  4 11 14 pump_sem97 2.14421000E-03 pump_sem97
  4 11 14 pump_sem102 3.01210000E-03 pump_sem102
  1 11 15 pump_sem97 6.77478000E-03 pump_sem97
  1 11 15 pump_sem102 4.75848000E-03 pump_sem102
  4 11 15 pump_sem97 4.52466000E-03 pump_sem97
  4 11 15 pump_sem102 3.17803000E-03 pump_sem102
  1 11 16 pump_sem97 8.05468000E-03 pump_sem97
  1 11 16 pump_sem102 5.65745000E-03 pump_sem102
  4 11 16 pump_sem97 3.24475000E-03 pump_sem97
  4 11 16 pump_sem102 2.27905000E-03 pump_sem102
  1 11 17 pump_sem97 7.83736000E-03 pump_sem97
  1 11 17 pump_sem102 5.50482000E-03 pump_sem102
  4 11 17 pump_sem97 3.46207000E-03 pump_sem97
  4 11 17 pump_sem102 2.43169000E-03 pump_sem102
  1 11 18 pump_sem94 1.22447000E-02 pump_sem94
  1 11 18 pump_sem97 7.33299000E-03 pump_sem97
  4 11 18 pump_sem94 6.62322000E-03 pump_sem94
  4 11 18 pump_sem97 3.96645000E-03 pump_sem97
  1 11 19 pump_sem94 9.38701000E-03 pump_sem94
  1 11 19 pump_sem95 8.15593000E-03 pump_sem95
  1 11 19 pump_sem97 2.81080000E-03 pump_sem97
  4 11 19 pump_sem94 7.12324000E-03 pump_sem94
  4 11 19 pump_sem95 6.18904000E-03 pump_sem95
  4 11 19 pump_sem97 2.13295000E-03 pump_sem97
  5 11 19 pump_sem94 2.35768000E-03 pump_sem94
  5 11 19 pump_sem95 2.04847000E-03 pump_sem95
  5 11 19 pump_sem97 7.05970000E-04 pump_sem97
  1 11 20 pump_sem95 9.10203000E-03 pump_sem95
  4 11 20 pump_sem95 1.86917300E-02 pump_sem95
  5 11 20 pump_sem95 4.99313000E-03 pump_sem95
  1 11 21 pump_sem95 1.16287200E-02 pump_sem95
  4 11 21 pump_sem95 1.55962900E-02 pump_sem95
  5 11 21 pump_sem95 5.56187000E-03 pump_sem95
  1 11 22 pump_sem95 5.60300000E-03 pump_sem95
  4 11 22 pump_sem95 7.61097000E-03 pump_sem95
  5 11 22 pump_sem95 3.17947000E-03 pump_sem95
  1 12 8 pump_sem97 4.19866000E-03 pump_sem97
  1 12 8 pump_sem102 5.89811000E-03 pump_sem102
  5 12 8 pump_sem97 1.45106000E-03 pump_sem97
  5 12 8 pump_sem102 2.03839000E-03 pump_sem102
  1 12 9 pump_sem97 2.79521000E-03 pump_sem97
  1 12 9 pump_sem102 1.96330000E-03 pump_sem102
  4 12 9 pump_sem97 7.20063000E-03 pump_sem97
  4 12 9 pump_sem102 5.05759000E-03 pump_sem102
  5 12 9 pump_sem97 1.30359000E-03 pump_sem97
  5 12 9 pump_sem102 9.15620000E-04 pump_sem102
  1 12 10 pump_sem102 1.79698000E-03 pump_sem102
  4 12 10 pump_sem102 6.13953000E-03 pump_sem102
  1 12 11 pump_sem102 1.81993000E-03 pump_sem102
  4 12 11 pump_sem102 6.11658000E-03 pump_sem102
  1 12 12 pump_sem102 1.79634000E-03 pump_sem102
  4 12 12 pump_sem102 6.14017000E-03 pump_sem102
  1 12 13 pump_sem102 2.49617000E-03 pump_sem102
  4 12 13 pump_sem102 5.44034000E-03 pump_sem102
  1 12 14 pump_sem102 3.07922000E-03 pump_sem102
  4 12 14 pump_sem102 4.85729000E-03 pump_sem102
  1 12 15 pump_sem97 2.88168000E-03 pump_sem97
  1 12 15 pump_sem102 4.04807000E-03 pump_sem102
  4 12 15 pump_sem97 2.76804000E-03 pump_sem97
  4 12 15 pump_sem102 3.88844000E-03 pump_sem102
  1 12 16 pump_sem97 3.34907000E-03 pump_sem97
  1 12 16 pump_sem102 4.70465000E-03 pump_sem102
  4 12 16 pump_sem97 2.30064000E-03 pump_sem97
  4 12 16 pump_sem102 3.23186000E-03 pump_sem102
  1 12 17 pump_sem97 5.95422000E-03 pump_sem97
  1 12 17 pump_sem102 4.18213000E-03 pump_sem102
  4 12 17 pump_sem97 5.34521000E-03 pump_sem97
  4 12 17 pump_sem102 3.75438000E-03 pump_sem102
  1 12 18 pump_sem97 5.79375000E-03 pump_sem97
  4 12 18 pump_sem97 5.50569000E-03 pump_sem97
  1 12 19 pump_sem95 3.12389000E-03 pump_sem95
  1 12 19 pump_sem97 4.30638000E-03 pump_sem97
  4 12 19 pump_sem95 4.25217000E-03 pump_sem95
  4 12 19 pump_sem97 5.86175000E-03 pump_sem97
  5 12 19 pump_sem95 8.20660000E-04 pump_sem95
  5 12 19 pump_sem97 1.13130000E-03 pump_sem97
  1 12 20 pump_sem95 2.91698000E-03 pump_sem95
  4 12 20 pump_sem95 4.21857000E-03 pump_sem95
  5 12 20 pump_sem95 1.06117000E-03 pump_sem95
  1 12 21 pump_sem95 9.41840000E-03 pump_sem95
  4 12 21 pump_sem95 1.12967600E-02 pump_sem95
  5 12 21 pump_sem95 3.87501000E-03 pump_sem95
  1 12 22 pump_sem95 6.13865000E-03 pump_sem95
  4 12 22 pump_sem95 7.63562000E-03 pump_sem95
  5 12 22 pump_sem95 2.61917000E-03 pump_sem95
  1 12 23 pump_sem95 7.35495000E-03 pump_sem95
  4 12 23 pump_sem95 7.08417000E-03 pump_sem95
  5 12 23 pump_sem95 1.95432000E-03 pump_sem95
  1 12 24 pump_sem95 8.74644000E-03 pump_sem95
  4 12 24 pump_sem95 7.64700000E-03 pump_sem95
  1 13 8 pump_sem97 3.62761000E-03 pump_sem97
  1 13 8 pump_sem102 5.09593000E-03 pump_sem102
  5 13 8 pump_sem97 2.02211000E-03 pump_sem97
  5 13 8 pump_sem102 2.84058000E-03 pump_sem102
  1 13 9 pump_sem97 7.62780000E-04 pump_sem97
  1 13 9 pump_sem102 1.07153000E-03 pump_sem102
  4 13 9 pump_sem97 4.16942000E-03 pump_sem97
  4 13 9 pump_sem102 5.85704000E-03 pump_sem102
  5 13 9 pump_sem97 7.17510000E-04 pump_sem97
  5 13 9 pump_sem102 1.00793000E-03 pump_sem102
  1 13 10 pump_sem102 9.36610000E-04 pump_sem102
  4 13 10 pump_sem102 6.21957000E-03 pump_sem102
  5 13 10 pump_sem102 7.80330000E-04 pump_sem102
  1 13 11 pump_sem102 8.26360000E-04 pump_sem102
  4 13 11 pump_sem102 7.11015000E-03 pump_sem102
  1 13 12 pump_sem102 8.64280000E-04 pump_sem102
  4 13 12 pump_sem102 7.07223000E-03 pump_sem102
  1 13 14 pump_sem102 1.33551000E-03 pump_sem102
  4 13 14 pump_sem102 6.60100000E-03 pump_sem102
  1 13 15 pump_sem102 2.37569000E-03 pump_sem102
  4 13 15 pump_sem102 5.56082000E-03 pump_sem102
  1 13 16 pump_sem97 2.24265000E-03 pump_sem97
  1 13 16 pump_sem102 3.15039000E-03 pump_sem102
  4 13 16 pump_sem97 3.40707000E-03 pump_sem97
  4 13 16 pump_sem102 4.78612000E-03 pump_sem102
  1 13 17 pump_sem97 2.50093000E-03 pump_sem97
  1 13 17 pump_sem102 3.51322000E-03 pump_sem102
  4 13 17 pump_sem97 3.14878000E-03 pump_sem97
  4 13 17 pump_sem102 4.42329000E-03 pump_sem102
  1 13 18 pump_sem97 2.32057000E-03 pump_sem97
  1 13 18 pump_sem102 3.25985000E-03 pump_sem102
  4 13 18 pump_sem97 3.32914000E-03 pump_sem97
  4 13 18 pump_sem102 4.67666000E-03 pump_sem102
  1 13 19 pump_sem95 3.40797000E-03 pump_sem95
  1 13 19 pump_sem97 4.69799000E-03 pump_sem97
  1 13 19 pump_sem102 3.29978000E-03 pump_sem102
  4 13 19 pump_sem95 3.95013000E-03 pump_sem95
  4 13 19 pump_sem97 5.44538000E-03 pump_sem97
  4 13 19 pump_sem102 3.82473000E-03 pump_sem102
  5 13 19 pump_sem95 8.38620000E-04 pump_sem95
  5 13 19 pump_sem97 1.15607000E-03 pump_sem97
  5 13 19 pump_sem102 8.12000000E-04 pump_sem102
  1 13 20 pump_sem95 2.81660000E-03 pump_sem95
  1 13 20 pump_sem97 3.88278000E-03 pump_sem97
  4 13 20 pump_sem95 4.36614000E-03 pump_sem95
  4 13 20 pump_sem97 6.01885000E-03 pump_sem97
  5 13 20 pump_sem95 1.01398000E-03 pump_sem95
  5 13 20 pump_sem97 1.39780000E-03 pump_sem97
  1 13 21 pump_sem95 8.68982000E-03 pump_sem95
  1 13 21 pump_sem97 1.99653000E-03 pump_sem97
  4 13 21 pump_sem95 1.23097900E-02 pump_sem95
  4 13 21 pump_sem97 2.82824000E-03 pump_sem97
  5 13 21 pump_sem95 3.59056000E-03 pump_sem95
  5 13 21 pump_sem97 8.24950000E-04 pump_sem97
  1 13 22 pump_sem95 1.29844200E-02 pump_sem95
  4 13 22 pump_sem95 8.82363000E-03 pump_sem95
  5 13 22 pump_sem95 2.78211000E-03 pump_sem95
  1 13 23 pump_sem95 4.06663000E-03 pump_sem95
  4 13 23 pump_sem95 3.26391000E-03 pump_sem95
  5 13 23 pump_sem95 8.66180000E-04 pump_sem95
  1 13 24 pump_sem95 5.04041000E-03 pump_sem95
  4 13 24 pump_sem95 3.15631000E-03 pump_sem95
  1 13 25 pump_sem95 4.23056000E-03 pump_sem95
  4 13 25 pump_sem95 3.96616000E-03 pump_sem95
  1 13 26 pump_sem95 1.06605000E-02 pump_sem95
  4 13 26 pump_sem95 5.73294000E-03 pump_sem95
  1 13 27 pump_sem95 1.07326900E-02 pump_sem95
  4 13 27 pump_sem95 5.66075000E-03 pump_sem95
  1 13 28 pump_sem95 5.18893000E-03 pump_sem95
  4 13 28 pump_sem95 1.12045100E-02 pump_sem95
  1 13 34 pump_sem95 8.75251000E-03 pump_sem95
  1 13 34 pump_sem102 4.23733000E-03 pump_sem102
  4 13 34 pump_sem95 7.64093000E-03 pump_sem95
  4 13 34 pump_sem102 3.69918000E-03 pump_sem102
  1 14 8 pump_sem97 8.19780000E-04 pump_sem97
  1 14 8 pump_sem102 1.15159000E-03 pump_sem102
  4 14 8 pump_sem97 3.76419000E-03 pump_sem97
  4 14 8 pump_sem102 5.28780000E-03 pump_sem102
  5 14 8 pump_sem97 1.06575000E-03 pump_sem97
  5 14 8 pump_sem102 1.49712000E-03 pump_sem102
  4 14 9 pump_sem102 6.96633000E-03 pump_sem102
  5 14 9 pump_sem102 9.70180000E-04 pump_sem102
  4 14 10 pump_sem102 7.11702000E-03 pump_sem102
  5 14 10 pump_sem102 8.19490000E-04 pump_sem102
  4 14 11 pump_sem102 7.93651000E-03 pump_sem102
  4 14 12 pump_sem81 2.94117600E-02 pump_sem81
  4 14 12 pump_sem102 7.93651000E-03 pump_sem102
  1 14 15 pump_sem81 6.14897000E-03 pump_sem81
  1 14 15 pump_sem102 1.65925000E-03 pump_sem102
  4 14 15 pump_sem81 2.32627900E-02 pump_sem81
  4 14 15 pump_sem102 6.27726000E-03 pump_sem102
  1 14 16 pump_sem81 7.07019000E-03 pump_sem81
  1 14 16 pump_sem102 1.90783000E-03 pump_sem102
  4 14 16 pump_sem81 2.23415700E-02 pump_sem81
  4 14 16 pump_sem102 6.02868000E-03 pump_sem102
  1 14 17 pump_sem97 1.68596000E-03 pump_sem97
  1 14 17 pump_sem102 2.36838000E-03 pump_sem102
  4 14 17 pump_sem97 3.96375000E-03 pump_sem97
  4 14 17 pump_sem102 5.56813000E-03 pump_sem102
  1 14 18 pump_sem102 3.46410000E-03 pump_sem102
  4 14 18 pump_sem102 3.60904000E-03 pump_sem102
  5 14 18 pump_sem102 8.63360000E-04 pump_sem102
  1 14 19 pump_sem97 2.12029000E-03 pump_sem97
  1 14 19 pump_sem102 2.97851000E-03 pump_sem102
  4 14 19 pump_sem97 2.90490000E-03 pump_sem97
  4 14 19 pump_sem102 4.08069000E-03 pump_sem102
  5 14 19 pump_sem97 6.24530000E-04 pump_sem97
  5 14 19 pump_sem102 8.77310000E-04 pump_sem102
  1 14 20 pump_sem97 3.39031000E-03 pump_sem97
  1 14 20 pump_sem102 2.38129000E-03 pump_sem102
  4 14 20 pump_sem97 6.44153000E-03 pump_sem97
  4 14 20 pump_sem102 4.52441000E-03 pump_sem102
  5 14 20 pump_sem97 1.46759000E-03 pump_sem97
  5 14 20 pump_sem102 1.03081000E-03 pump_sem102
  1 14 21 pump_sem95 3.00124000E-03 pump_sem95
  1 14 21 pump_sem96 4.52039000E-03 pump_sem96
  1 14 21 pump_sem97 2.06865000E-03 pump_sem97
  4 14 21 pump_sem95 4.09708000E-03 pump_sem95
  4 14 21 pump_sem96 6.17091000E-03 pump_sem96
  4 14 21 pump_sem97 2.82397000E-03 pump_sem97
  5 14 21 pump_sem95 1.09840000E-03 pump_sem95
  5 14 21 pump_sem96 1.65438000E-03 pump_sem96
  5 14 21 pump_sem97 7.57090000E-04 pump_sem97
  1 14 22 pump_sem95 4.69125000E-03 pump_sem95
  1 14 22 pump_sem96 7.06584000E-03 pump_sem96
  1 14 22 pump_sem97 3.23352000E-03 pump_sem97
  4 14 22 pump_sem95 3.50547000E-03 pump_sem95
  4 14 22 pump_sem96 5.27984000E-03 pump_sem96
  4 14 22 pump_sem97 2.41620000E-03 pump_sem97
  1 14 23 pump_sem95 1.26201600E-02 pump_sem95
  4 14 23 pump_sem95 1.19700100E-02 pump_sem95
  1 14 24 pump_sem95 9.86000000E-03 pump_sem95
  4 14 24 pump_sem95 6.53344000E-03 pump_sem95
  1 14 25 pump_sem95 9.28841000E-03 pump_sem95
  4 14 25 pump_sem95 7.10503000E-03 pump_sem95
  1 14 26 pump_sem95 5.65831000E-03 pump_sem95
  4 14 26 pump_sem95 2.53841000E-03 pump_sem95
  1 14 27 pump_sem95 4.50907000E-03 pump_sem95
  4 14 27 pump_sem95 3.68765000E-03 pump_sem95
  1 14 28 pump_sem95 2.46672000E-03 pump_sem95
  4 14 28 pump_sem95 5.73000000E-03 pump_sem95
  1 14 29 pump_sem95 4.24339000E-03 pump_sem95
  4 14 29 pump_sem95 3.95333000E-03 pump_sem95
  1 14 30 pump_sem95 4.59401000E-03 pump_sem95
  4 14 30 pump_sem95 3.60271000E-03 pump_sem95
  1 14 31 pump_sem95 3.98802000E-03 pump_sem95
  4 14 31 pump_sem95 4.20870000E-03 pump_sem95
  1 14 32 pump_sem95 4.32606000E-03 pump_sem95
  4 14 32 pump_sem95 3.87066000E-03 pump_sem95
  1 14 33 pump_sem95 9.40226000E-03 pump_sem95
  1 14 33 pump_sem96 7.08071000E-03 pump_sem96
  4 14 33 pump_sem95 6.99118000E-03 pump_sem95
  4 14 33 pump_sem96 5.26497000E-03 pump_sem96
  1 14 34 pump_sem95 9.23055000E-03 pump_sem95
  1 14 34 pump_sem96 6.95140000E-03 pump_sem96
  1 14 34 pump_sem102 4.46876000E-03 pump_sem102
  4 14 34 pump_sem95 7.16289000E-03 pump_sem95
  4 14 34 pump_sem96 5.39428000E-03 pump_sem96
  4 14 34 pump_sem102 3.46775000E-03 pump_sem102
  1 14 35 pump_sem93 2.95808000E-03 pump_sem93
  1 14 35 pump_sem95 2.90959000E-03 pump_sem95
  1 14 35 pump_sem96 4.38235000E-03 pump_sem96
  1 14 35 pump_sem101 2.95808000E-03 pump_sem101
  1 14 35 pump_sem102 2.81722000E-03 pump_sem102
  3 14 35 pump_sem93 9.79670000E-04 pump_sem93
  3 14 35 pump_sem95 9.63610000E-04 pump_sem95
  3 14 35 pump_sem96 1.45137000E-03 pump_sem96
  3 14 35 pump_sem101 9.79670000E-04 pump_sem101
  3 14 35 pump_sem102 9.33020000E-04 pump_sem102
  4 14 35 pump_sem93 4.39558000E-03 pump_sem93
  4 14 35 pump_sem95 4.32352000E-03 pump_sem95
  4 14 35 pump_sem96 6.51197000E-03 pump_sem96
  4 14 35 pump_sem101 4.39558000E-03 pump_sem101
  4 14 35 pump_sem102 4.18626000E-03 pump_sem102
  1 15 8 pump_sem97 6.50940000E-04 pump_sem97
  1 15 8 pump_sem102 9.14420000E-04 pump_sem102
  4 15 8 pump_sem97 3.84917000E-03 pump_sem97
  4 15 8 pump_sem102 5.40716000E-03 pump_sem102
  5 15 8 pump_sem97 1.14961000E-03 pump_sem97
  5 15 8 pump_sem102 1.61493000E-03 pump_sem102
  4 15 9 pump_sem102 6.85382000E-03 pump_sem102
  5 15 9 pump_sem102 1.08269000E-03 pump_sem102
  4 15 10 pump_sem102 7.08499000E-03 pump_sem102
  5 15 10 pump_sem102 8.51520000E-04 pump_sem102
  4 15 11 pump_sem102 7.93651000E-03 pump_sem102
  4 15 12 pump_sem81 2.94117600E-02 pump_sem81
  4 15 12 pump_sem102 7.93651000E-03 pump_sem102
  4 15 13 pump_sem81 2.94117600E-02 pump_sem81
  1 15 16 pump_sem81 9.59266000E-03 pump_sem81
  1 15 16 pump_sem102 2.58849000E-03 pump_sem102
  3 15 16 pump_sem81 5.50435000E-03 pump_sem81
  3 15 16 pump_sem102 1.48530000E-03 pump_sem102
  4 15 16 pump_sem81 1.43147600E-02 pump_sem81
  4 15 16 pump_sem102 3.86271000E-03 pump_sem102
  1 15 17 pump_sem81 4.44928000E-03 pump_sem81
  1 15 17 pump_sem102 1.20060000E-03 pump_sem102
  3 15 17 pump_sem81 3.91465000E-03 pump_sem81
  3 15 17 pump_sem102 1.05633000E-03 pump_sem102
  4 15 17 pump_sem81 2.10478400E-02 pump_sem81
  4 15 17 pump_sem102 5.67958000E-03 pump_sem102
  1 15 18 pump_sem102 1.42966000E-03 pump_sem102
  3 15 18 pump_sem102 9.43400000E-04 pump_sem102
  4 15 18 pump_sem102 5.56344000E-03 pump_sem102
  1 15 19 pump_sem93 3.04884000E-03 pump_sem93
  1 15 19 pump_sem101 3.04884000E-03 pump_sem101
  1 15 19 pump_sem102 2.90365000E-03 pump_sem102
  4 15 19 pump_sem93 4.32066000E-03 pump_sem93
  4 15 19 pump_sem101 4.32066000E-03 pump_sem101
  4 15 19 pump_sem102 4.11492000E-03 pump_sem102
  5 15 19 pump_sem93 9.63840000E-04 pump_sem93
  5 15 19 pump_sem101 9.63840000E-04 pump_sem101
  5 15 19 pump_sem102 9.17940000E-04 pump_sem102
  1 15 20 pump_sem93 3.49154000E-03 pump_sem93
  1 15 20 pump_sem96 5.17265000E-03 pump_sem96
  1 15 20 pump_sem97 4.73429000E-03 pump_sem97
  1 15 20 pump_sem101 3.49154000E-03 pump_sem101
  1 15 20 pump_sem102 6.65055000E-03 pump_sem102
  4 15 20 pump_sem93 3.77773000E-03 pump_sem93
  4 15 20 pump_sem96 5.59664000E-03 pump_sem96
  4 15 20 pump_sem97 5.12235000E-03 pump_sem97
  4 15 20 pump_sem101 3.77773000E-03 pump_sem101
  4 15 20 pump_sem102 7.19568000E-03 pump_sem102
  5 15 20 pump_sem93 1.06407000E-03 pump_sem93
  5 15 20 pump_sem96 1.57639000E-03 pump_sem96
  5 15 20 pump_sem97 1.44280000E-03 pump_sem97
  5 15 20 pump_sem101 1.06407000E-03 pump_sem101
  5 15 20 pump_sem102 2.02679000E-03 pump_sem102
  1 15 21 pump_sem93 4.31820000E-03 pump_sem93
  1 15 21 pump_sem96 1.27946600E-02 pump_sem96
  1 15 21 pump_sem97 5.85518000E-03 pump_sem97
  1 15 21 pump_sem101 4.31820000E-03 pump_sem101
  1 15 21 pump_sem102 4.11257000E-03 pump_sem102
  4 15 21 pump_sem93 3.12524000E-03 pump_sem93
  4 15 21 pump_sem96 9.25998000E-03 pump_sem96
  4 15 21 pump_sem97 4.23762000E-03 pump_sem97
  4 15 21 pump_sem101 3.12524000E-03 pump_sem101
  4 15 21 pump_sem102 2.97642000E-03 pump_sem102
  5 15 21 pump_sem93 8.89890000E-04 pump_sem93
  5 15 21 pump_sem96 2.63672000E-03 pump_sem96
  5 15 21 pump_sem97 1.20663000E-03 pump_sem97
  5 15 21 pump_sem101 8.89890000E-04 pump_sem101
  5 15 21 pump_sem102 8.47520000E-04 pump_sem102
  1 15 22 pump_sem95 4.03027000E-03 pump_sem95
  1 15 22 pump_sem96 1.21405500E-02 pump_sem96
  4 15 22 pump_sem95 3.23373000E-03 pump_sem95
  4 15 22 pump_sem96 9.74111000E-03 pump_sem96
  5 15 22 pump_sem95 9.32720000E-04 pump_sem95
  5 15 22 pump_sem96 2.80969000E-03 pump_sem96
  1 15 23 pump_sem95 4.05108000E-03 pump_sem95
  1 15 23 pump_sem96 6.10163000E-03 pump_sem96
  4 15 23 pump_sem95 3.24431000E-03 pump_sem95
  4 15 23 pump_sem96 4.88650000E-03 pump_sem96
  5 15 23 pump_sem95 9.01330000E-04 pump_sem95
  5 15 23 pump_sem96 1.35755000E-03 pump_sem96
  1 15 24 pump_sem95 1.77272900E-02 pump_sem95
  1 15 24 pump_sem96 8.90012000E-03 pump_sem96
  4 15 24 pump_sem95 6.86287000E-03 pump_sem95
  4 15 24 pump_sem96 3.44556000E-03 pump_sem96
  1 15 25 pump_sem95 1.76117600E-02 pump_sem95
  4 15 25 pump_sem95 6.97840000E-03 pump_sem95
  1 15 26 pump_sem95 1.13892100E-02 pump_sem95
  4 15 26 pump_sem95 5.00423000E-03 pump_sem95
  1 15 27 pump_sem95 4.67264000E-03 pump_sem95
  4 15 27 pump_sem95 3.52408000E-03 pump_sem95
  1 15 28 pump_sem95 3.90575000E-03 pump_sem95
  4 15 28 pump_sem95 4.29097000E-03 pump_sem95
  1 15 29 pump_sem95 4.96489000E-03 pump_sem95
  4 15 29 pump_sem95 3.23183000E-03 pump_sem95
  1 15 30 pump_sem95 5.01427000E-03 pump_sem95
  4 15 30 pump_sem95 3.18245000E-03 pump_sem95
  1 15 31 pump_sem95 1.09687200E-02 pump_sem95
  4 15 31 pump_sem95 5.42473000E-03 pump_sem95
  1 15 32 pump_sem95 8.68295000E-03 pump_sem95
  1 15 32 pump_sem96 6.53901000E-03 pump_sem96
  4 15 32 pump_sem95 7.71049000E-03 pump_sem95
  4 15 32 pump_sem96 5.80667000E-03 pump_sem96
  1 15 33 pump_sem95 1.04786600E-02 pump_sem95
  1 15 33 pump_sem96 7.89134000E-03 pump_sem96
  1 15 33 pump_sem102 5.07300000E-03 pump_sem102
  4 15 33 pump_sem95 5.91478000E-03 pump_sem95
  4 15 33 pump_sem96 4.45434000E-03 pump_sem96
  4 15 33 pump_sem102 2.86350000E-03 pump_sem102
  1 15 34 pump_sem93 5.23496000E-03 pump_sem93
  1 15 34 pump_sem95 5.14914000E-03 pump_sem95
  1 15 34 pump_sem96 7.75549000E-03 pump_sem96
  1 15 34 pump_sem101 5.23496000E-03 pump_sem101
  1 15 34 pump_sem102 4.98567000E-03 pump_sem102
  4 15 34 pump_sem93 3.09838000E-03 pump_sem93
  4 15 34 pump_sem95 3.04758000E-03 pump_sem95
  4 15 34 pump_sem96 4.59019000E-03 pump_sem96
  4 15 34 pump_sem101 3.09838000E-03 pump_sem101
  4 15 34 pump_sem102 2.95084000E-03 pump_sem102
  1 15 35 pump_sem93 5.91617000E-03 pump_sem93
  1 15 35 pump_sem101 5.91617000E-03 pump_sem101
  1 15 35 pump_sem102 2.81722000E-03 pump_sem102
  3 15 35 pump_sem93 1.95935000E-03 pump_sem93
  3 15 35 pump_sem101 1.95935000E-03 pump_sem101
  3 15 35 pump_sem102 9.33020000E-04 pump_sem102
  4 15 35 pump_sem93 8.79115000E-03 pump_sem93
  4 15 35 pump_sem101 8.79115000E-03 pump_sem101
  4 15 35 pump_sem102 4.18626000E-03 pump_sem102
  1 16 7 pump_sem25 7.35871000E-03 pump_sem25
  1 16 7 pump_sem62 5.15109500E-02 pump_sem62
  1 16 7 pump_sem97 3.20125000E-03 pump_sem97
  5 16 7 pump_sem25 5.62831000E-03 pump_sem25
  5 16 7 pump_sem62 3.93981400E-02 pump_sem62
  5 16 7 pump_sem97 2.44847000E-03 pump_sem97
  1 16 8 pump_sem25 2.08124000E-03 pump_sem25
  1 16 8 pump_sem62 1.45687100E-02 pump_sem62
  1 16 8 pump_sem97 9.05400000E-04 pump_sem97
  1 16 8 pump_sem102 1.27187000E-03 pump_sem102
  4 16 8 pump_sem25 9.37515000E-03 pump_sem25
  4 16 8 pump_sem62 6.56260800E-02 pump_sem62
  4 16 8 pump_sem97 4.07846000E-03 pump_sem97
  4 16 8 pump_sem102 5.72926000E-03 pump_sem102
  5 16 8 pump_sem25 1.53061000E-03 pump_sem25
  5 16 8 pump_sem62 1.07143000E-02 pump_sem62
  5 16 8 pump_sem97 6.65860000E-04 pump_sem97
  5 16 8 pump_sem102 9.35380000E-04 pump_sem102
  1 16 9 pump_sem25 1.50861000E-03 pump_sem25
  1 16 9 pump_sem102 9.21930000E-04 pump_sem102
  4 16 9 pump_sem25 9.80656000E-03 pump_sem25
  4 16 9 pump_sem102 5.99290000E-03 pump_sem102
  5 16 9 pump_sem25 1.67184000E-03 pump_sem25
  5 16 9 pump_sem102 1.02168000E-03 pump_sem102
  4 16 10 pump_sem81 2.94117600E-02 pump_sem81
  4 16 10 pump_sem102 7.93651000E-03 pump_sem102
  4 16 11 pump_sem81 2.94117600E-02 pump_sem81
  4 16 11 pump_sem102 7.93651000E-03 pump_sem102
  4 16 12 pump_sem81 2.94117600E-02 pump_sem81
  4 16 12 pump_sem102 7.93651000E-03 pump_sem102
  1 16 18 pump_sem81 5.92177000E-03 pump_sem81
  1 16 18 pump_sem102 1.59794000E-03 pump_sem102
  3 16 18 pump_sem81 5.58237000E-03 pump_sem81
  3 16 18 pump_sem102 1.50635000E-03 pump_sem102
  4 16 18 pump_sem81 1.79076200E-02 pump_sem81
  4 16 18 pump_sem102 4.83222000E-03 pump_sem102
  1 16 19 pump_sem05 1.47192000E-03 pump_sem05
  1 16 19 pump_sem93 1.81537000E-03 pump_sem93
  1 16 19 pump_sem101 1.81537000E-03 pump_sem101
  1 16 19 pump_sem102 1.72893000E-03 pump_sem102
  3 16 19 pump_sem05 9.53220000E-04 pump_sem05
  3 16 19 pump_sem93 1.17563000E-03 pump_sem93
  3 16 19 pump_sem101 1.17563000E-03 pump_sem101
  3 16 19 pump_sem102 1.11965000E-03 pump_sem102
  4 16 19 pump_sem05 4.33162000E-03 pump_sem05
  4 16 19 pump_sem93 5.34233000E-03 pump_sem93
  4 16 19 pump_sem101 5.34233000E-03 pump_sem101