# File generated by Flopy version 3.8.0 on 08/20/2024 at 11:26:02.
BEGIN options
  BOUNDNAMES
  SAVE_FLOWS
  OBS6  FILEIN  mf6-tv_hist.drn.obs
END options

BEGIN dimensions
  MAXBOUND  520
END dimensions

BEGIN period  1
  1 32 44 7.98576000E+02 8.34067235E+01 drn01
  1 33 45 8.06348400E+02 8.34067235E+01 drn01
  1 34 44 8.06256960E+02 8.34067235E+01 drn01
  1 33 46 8.15461920E+02 8.34067235E+01 drn01
  1 32 45 8.06714160E+02 8.34067235E+01 drn01
  1 32 37 7.84311360E+02 1.07581107E+02 drn02
  1 32 38 7.88852880E+02 1.07581107E+02 drn02
  1 31 38 7.72972800E+02 1.07581107E+02 drn02
  1 31 31 7.44809280E+02 1.07581107E+02 drn02
  1 33 38 7.89645360E+02 1.07581107E+02 drn02
  1 34 41 8.05891200E+02 1.07581107E+02 drn02
  1 33 42 8.10493680E+02 1.07581107E+02 drn02
  1 32 42 7.91778960E+02 1.07581107E+02 drn02
  1 34 42 8.11560480E+02 1.07581107E+02 drn02
  1 32 40 7.99094160E+02 1.07581107E+02 drn02
  1 32 35 7.73704320E+02 1.07581107E+02 drn02
  1 32 41 7.90163520E+02 1.07581107E+02 drn02
  1 31 32 7.48009680E+02 1.07581107E+02 drn02
  1 31 37 7.82848320E+02 1.07581107E+02 drn02
  1 31 34 7.55324880E+02 1.07581107E+02 drn02
  1 31 39 7.75807440E+02 1.07581107E+02 drn02
  1 32 36 7.79434560E+02 1.07581107E+02 drn02
  1 34 39 7.95162240E+02 1.07581107E+02 drn02
  1 33 40 8.00252400E+02 1.07581107E+02 drn02
  1 32 39 7.93577280E+02 1.07581107E+02 drn02
  1 31 33 7.51362480E+02 1.07581107E+02 drn02
  1 31 35 7.61573280E+02 1.07581107E+02 drn02
  1 31 36 7.77026640E+02 1.07581107E+02 drn02
  1 33 39 7.94766000E+02 1.07581107E+02 drn02
  1 34 40 8.00831520E+02 1.07581107E+02 drn02
  1 33 41 8.05555920E+02 1.07581107E+02 drn02
  1 34 43 8.16650640E+02 1.07581107E+02 drn02
  1 31 30 7.43163360E+02 1.07581107E+02 drn02
  1 35 43 8.16894480E+02 1.07581107E+02 drn02
  1 33 43 7.99216080E+02 1.07581107E+02 drn02
  1 33 37 7.84067520E+02 1.07581107E+02 drn02
  1 35 42 8.13297840E+02 1.07581107E+02 drn02
  1 32 34 7.68583680E+02 1.07581107E+02 drn02
  1 32 33 7.64346960E+02 1.07581107E+02 drn02
  1 31 29 7.40145840E+02 1.07581107E+02 drn02
  1 34 38 7.89401520E+02 1.07581107E+02 drn02
  1 31 28 7.35421440E+02 1.07581107E+02 drn02
  1 28 39 7.84829520E+02 1.07581107E+02 drn02
  1 35 44 8.23569600E+02 1.07581107E+02 drn02
  1 35 39 7.95680400E+02 1.07581107E+02 drn02
  1 30 26 7.26551760E+02 1.99582672E+01 drn03
  1 28 19 7.02960240E+02 1.99582672E+01 drn03
  1 29 21 7.09574400E+02 1.99582672E+01 drn03
  1 28 20 7.10702160E+02 1.99582672E+01 drn03
  1 29 20 7.04057520E+02 1.99582672E+01 drn03
  1 27 20 7.19145120E+02 1.99582672E+01 drn03
  1 27 19 7.13780640E+02 1.99582672E+01 drn03
  1 26 15 6.91469280E+02 1.99582672E+01 drn03
  1 28 21 7.19876640E+02 1.99582672E+01 drn03
  1 27 18 7.07654160E+02 1.99582672E+01 drn03
  1 30 25 7.23351360E+02 1.99582672E+01 drn03
  1 26 16 7.04880480E+02 1.99582672E+01 drn03
  1 26 14 6.86897280E+02 1.99582672E+01 drn03
  1 26 20 7.31245680E+02 1.99582672E+01 drn03
  1 26 21 7.39475280E+02 1.99582672E+01 drn03
  1 27 21 7.26673680E+02 1.99582672E+01 drn03
  1 29 27 7.29355920E+02 1.99582672E+01 drn03
  1 28 25 7.25149680E+02 1.99582672E+01 drn03
  1 25 17 7.16798160E+02 1.99582672E+01 drn03
  1 27 25 7.34385120E+02 1.99582672E+01 drn03
  1 27 26 7.35238560E+02 1.99582672E+01 drn03
  1 26 18 7.13872080E+02 1.29073138E+03 drn04
  1 25 20 7.30788480E+02 1.29073138E+03 drn04
  1 25 19 7.24143840E+02 1.29073138E+03 drn04
  1 26 17 7.07562720E+02 1.29073138E+03 drn04
  1 25 18 7.19297520E+02 1.29073138E+03 drn04
  1 26 19 7.18901280E+02 1.29073138E+03 drn04
  1 24 19 7.39170480E+02 1.29073138E+03 drn04
  1 24 20 7.32678240E+02 1.29073138E+03 drn04
  1 25 21 7.40176320E+02 1.29073138E+03 drn04
  1 32 21 7.12561440E+02 4.71899970E+02 drn05
  1 32 20 7.09604880E+02 4.71899970E+02 drn05
  1 30 13 7.29874080E+02 1.82138361E-01 drn05
  1 33 21 7.29325440E+02 4.71899970E+02 drn05
  1 29 13 6.90554880E+02 1.82138361E-01 drn05
  1 28 13 6.87232560E+02 4.71899970E+02 drn05
  1 30 17 6.99028320E+02 4.71899970E+02 drn05
  1 33 19 7.31916240E+02 1.82138361E-01 drn05
  1 30 16 6.97290960E+02 4.71899970E+02 drn05
  1 32 17 7.18413600E+02 4.71899970E+02 drn05
  1 32 18 7.14999840E+02 4.71899970E+02 drn05
  1 32 15 7.46241840E+02 1.82138361E-01 drn05
  1 32 16 7.28898720E+02 1.82138361E-01 drn05
  1 30 15 6.94547760E+02 1.82138361E-01 drn05
  1 32 19 7.08172320E+02 4.71899970E+02 drn05
  1 28 14 6.88482240E+02 4.71899970E+02 drn05
  1 29 16 6.95858400E+02 4.71899970E+02 drn05
  1 31 15 7.30910400E+02 1.82138361E-01 drn05
  1 33 20 7.31276160E+02 1.82138361E-01 drn05
  1 33 17 7.49747040E+02 1.82138361E-01 drn05
  1 34 17 7.53892320E+02 1.82138361E-01 drn05
  1 34 16 7.53221760E+02 1.82138361E-01 drn05
  1 30 14 7.22376000E+02 1.82138361E-01 drn05
  1 29 14 6.90798720E+02 4.71899970E+02 drn05
  1 31 18 7.03508880E+02 4.71899970E+02 drn05
  1 29 15 6.92871360E+02 4.71899970E+02 drn05
  1 31 17 7.01497200E+02 4.71899970E+02 drn05
  1 31 16 7.00826640E+02 4.71899970E+02 drn05
  1 32 14 7.49198400E+02 1.82138361E-01 drn05
  1 33 22 7.25667840E+02 4.71899970E+02 drn05
  1 33 18 7.47522000E+02 1.82138361E-01 drn05
  1 30 18 7.01832480E+02 4.71899970E+02 drn05
  1 31 14 7.32373440E+02 1.82138361E-01 drn05
  1 28 15 6.91194960E+02 4.71899970E+02 drn05
  1 33 15 7.53739920E+02 1.82138361E-01 drn05
  1 34 18 7.52459760E+02 1.82138361E-01 drn05
  1 34 20 7.50234720E+02 1.82138361E-01 drn05
  1 34 19 7.57915680E+02 1.82138361E-01 drn05
  1 33 16 7.40603040E+02 1.82138361E-01 drn05
  1 31 13 7.33958400E+02 1.82138361E-01 drn05
  1 31 19 7.04179440E+02 4.71899970E+02 drn05
  1 29 17 6.97748160E+02 4.71899970E+02 drn05
  1 31 20 7.08233280E+02 4.71899970E+02 drn05
  1 35 18 7.54075200E+02 1.82138361E-01 drn05
  1 34 15 7.63036320E+02 1.82138361E-01 drn05
  1 33 14 7.58220480E+02 1.82138361E-01 drn05
  1 34 21 7.42431840E+02 1.82138361E-01 drn05
  1 28 16 6.94364880E+02 4.71899970E+02 drn05
  1 30 12 7.31062800E+02 1.82138361E-01 drn05
  1 32 22 7.19236560E+02 4.71899970E+02 drn05
  1 34 23 7.32708720E+02 4.71899970E+02 drn05
  1 35 23 7.37372160E+02 4.71899970E+02 drn05
  1 34 22 7.33927920E+02 4.71899970E+02 drn05
  1 35 17 7.59073920E+02 1.82138361E-01 drn05
  1 29 12 7.27039440E+02 1.82138361E-01 drn05
  1 31 21 7.11159360E+02 4.71899970E+02 drn05
  1 28 12 6.86744880E+02 1.82138361E-01 drn05
  1 32 13 7.46180880E+02 1.82138361E-01 drn05
  1 35 19 7.52520720E+02 1.82138361E-01 drn05
  1 27 12 6.83666400E+02 4.71899970E+02 drn05
  1 33 23 7.29325440E+02 4.71899970E+02 drn05
  1 31 12 7.36183440E+02 1.82138361E-01 drn05
  1 35 16 7.61817120E+02 1.82138361E-01 drn05
  1 29 40 7.77880080E+02 1.74728322E+02 drn06
  1 30 42 7.87359360E+02 1.74728322E+02 drn06
  1 29 41 7.83427440E+02 1.74728322E+02 drn06
  1 29 39 7.74771120E+02 1.74728322E+02 drn06
  1 30 41 7.82756880E+02 1.74728322E+02 drn06
  1 31 43 7.92967680E+02 1.74728322E+02 drn06
  1 30 43 7.92175200E+02 1.74728322E+02 drn06
  1 31 44 7.99459920E+02 1.74728322E+02 drn06
  1 29 42 7.92601920E+02 1.74728322E+02 drn06
  1 32 29 7.44931200E+02 1.72039958E+03 drn07
  1 36 37 7.92419040E+02 1.72039958E+03 drn07
  1 35 37 7.87024080E+02 1.72039958E+03 drn07
  1 33 31 7.57214640E+02 1.72039958E+03 drn07
  1 34 35 7.75441680E+02 1.72039958E+03 drn07
  1 35 36 7.81933920E+02 1.72039958E+03 drn07
  1 34 33 7.65718560E+02 1.72039958E+03 drn07
  1 34 34 7.70869680E+02 1.72039958E+03 drn07
  1 33 33 7.64255520E+02 1.72039958E+03 drn07
  1 34 36 7.79678400E+02 1.72039958E+03 drn07
  1 33 32 7.59896880E+02 1.72039958E+03 drn07
  1 35 38 7.90712160E+02 1.72039958E+03 drn07
  1 33 30 7.51667280E+02 1.72039958E+03 drn07
  1 33 34 7.68461760E+02 1.72039958E+03 drn07
  1 34 37 7.83000720E+02 1.72039958E+03 drn07
  1 32 30 7.50387120E+02 1.72039958E+03 drn07
  1 35 35 7.76935200E+02 1.72039958E+03 drn07
  1 34 32 7.61329440E+02 1.72039958E+03 drn07
  1 32 31 7.55446800E+02 1.72039958E+03 drn07
  1 33 35 7.72698480E+02 1.72039958E+03 drn07
  1 34 31 7.55782080E+02 1.72039958E+03 drn07
  1 33 29 7.46760000E+02 1.72039958E+03 drn07
  1 32 32 7.59561600E+02 1.72039958E+03 drn07
  1 32 28 7.42066080E+02 1.72039958E+03 drn07
  1 33 36 7.76843760E+02 1.72039958E+03 drn07
  1 36 36 7.85804880E+02 1.72039958E+03 drn07
  1 28 23 7.18962240E+02 4.07688454E+03 drn08
  1 27 22 7.27740480E+02 4.07688454E+03 drn08
  1 28 24 7.20760560E+02 4.07688454E+03 drn08
  1 27 23 7.28502480E+02 4.07688454E+03 drn08
  1 27 24 7.32464880E+02 4.07688454E+03 drn08
  1 28 22 7.21644480E+02 4.07688454E+03 drn08
  1 26 22 7.33958400E+02 4.07688454E+03 drn08
  1 26 23 7.38957120E+02 4.07688454E+03 drn08
  1 40 29 7.61451360E+02 1.23145469E+03 drn09
  1 39 29 7.55111520E+02 1.23145469E+03 drn09
  1 39 28 7.54197120E+02 1.23145469E+03 drn09
  1 39 27 7.53191280E+02 1.23145469E+03 drn09
  1 38 29 7.53496080E+02 1.23145469E+03 drn09
  1 37 24 7.40907840E+02 1.54399139E+04 drn09
  1 38 27 7.49686080E+02 1.23145469E+03 drn09
  1 36 27 7.43559600E+02 1.54399139E+04 drn09
  1 38 28 7.52398800E+02 1.23145469E+03 drn09
  1 35 25 7.36274880E+02 1.54399139E+04 drn09
  1 37 25 7.41761280E+02 1.54399139E+04 drn09
  1 36 25 7.40298240E+02 1.54399139E+04 drn09
  1 36 24 7.39261920E+02 1.54399139E+04 drn09
  1 33 24 7.27710000E+02 1.54399139E+04 drn09
  1 39 30 7.57458480E+02 1.23145469E+03 drn09
  1 36 26 7.40572560E+02 1.54399139E+04 drn09
  1 37 27 7.46302800E+02 1.54399139E+04 drn09
  1 34 24 7.30575120E+02 1.54399139E+04 drn09
  1 37 26 7.44809280E+02 1.23145469E+03 drn09
  1 35 24 7.34324160E+02 1.54399139E+04 drn09
  1 40 28 7.59714000E+02 1.23145469E+03 drn09
  1 37 28 7.49320320E+02 1.23145469E+03 drn09
  1 38 26 7.46485680E+02 1.23145469E+03 drn09
  1 35 26 7.38499920E+02 1.54399139E+04 drn09
  1 40 30 7.62182880E+02 1.23145469E+03 drn09
  1 32 23 7.22040720E+02 1.54399139E+04 drn09
  1 34 25 7.33958400E+02 1.54399139E+04 drn09
  1 39 31 7.56970800E+02 1.23145469E+03 drn09
  1 38 24 7.46455200E+02 1.23145469E+03 drn09
  1 38 25 7.48893600E+02 1.23145469E+03 drn09
  1 31 22 7.14420720E+02 1.54399139E+04 drn09
  1 38 30 7.54136160E+02 1.23145469E+03 drn09
  1 32 24 7.27557600E+02 1.54399139E+04 drn09
  1 33 25 7.30849440E+02 1.54399139E+04 drn09
  1 31 23 7.21461600E+02 1.54399139E+04 drn09
  1 35 27 7.41913680E+02 1.54399139E+04 drn09
  1 37 29 7.50813840E+02 1.23145469E+03 drn09
  1 39 26 7.53496080E+02 1.23145469E+03 drn09
  1 36 28 7.45876080E+02 1.54399139E+04 drn09
  1 40 27 7.68096000E+02 1.23145469E+03 drn09
  1 41 28 7.69284720E+02 1.23145469E+03 drn09
  1 41 33 7.84341840E+02 1.23145469E+03 drn09
  1 43 27 7.73673840E+02 9.56085623E+02 drn10
  1 42 25 7.71174480E+02 9.56085623E+02 drn10
  1 43 26 7.74557760E+02 9.56085623E+02 drn10
  1 42 26 7.69772400E+02 9.56085623E+02 drn10
  1 41 24 7.68675120E+02 9.56085623E+02 drn10
  1 35 22 7.44839760E+02 9.56085623E+02 drn10
  1 44 27 7.79282160E+02 9.56085623E+02 drn10
  1 36 23 7.48405920E+02 9.56085623E+02 drn10
  1 36 22 7.69924800E+02 9.56085623E+02 drn10
  1 37 23 7.58860560E+02 9.56085623E+02 drn10
  1 41 25 7.64987040E+02 9.56085623E+02 drn10
  1 42 24 7.97021520E+02 9.56085623E+02 drn10
  1 43 28 7.80684240E+02 9.56085623E+02 drn10
  1 37 22 7.67638800E+02 9.56085623E+02 drn10
  1 35 29 7.47643920E+02 3.07533496E+03 drn11
  1 35 30 7.54075200E+02 3.07533496E+03 drn11
  1 33 26 7.38560880E+02 3.07533496E+03 drn11
  1 34 28 7.44016800E+02 3.07533496E+03 drn11
  1 32 26 7.34994720E+02 3.07533496E+03 drn11
  1 33 27 7.40054400E+02 3.07533496E+03 drn11
  1 35 31 7.57519440E+02 3.07533496E+03 drn11
  1 34 27 7.43041440E+02 3.07533496E+03 drn11
  1 34 29 7.47552480E+02 3.07533496E+03 drn11
  1 31 25 7.29782640E+02 3.07533496E+03 drn11
  1 36 29 7.52246400E+02 3.07533496E+03 drn11
  1 32 27 7.39140000E+02 3.07533496E+03 drn11
  1 35 28 7.46150400E+02 3.07533496E+03 drn11
  1 32 25 7.33775520E+02 3.07533496E+03 drn11
  1 37 30 7.58464320E+02 3.07533496E+03 drn11
  1 39 33 7.78916400E+02 3.07533496E+03 drn11
  1 35 32 7.59195840E+02 3.07533496E+03 drn11
  1 31 24 7.28654880E+02 3.07533496E+03 drn11
  1 38 32 7.72393680E+02 3.07533496E+03 drn11
  1 36 30 7.67852160E+02 3.07533496E+03 drn11
  1 35 33 7.64865120E+02 3.07533496E+03 drn11
  1 31 26 7.33074480E+02 3.07533496E+03 drn11
  1 36 35 7.79129760E+02 3.07533496E+03 drn11
  1 33 28 7.42553760E+02 3.07533496E+03 drn11
  1 38 31 7.58403360E+02 3.07533496E+03 drn11
  1 37 31 7.62335280E+02 3.07533496E+03 drn11
  1 34 30 7.52398800E+02 3.07533496E+03 drn11
  1 40 34 7.87450800E+02 3.07533496E+03 drn11
  1 34 26 7.37402640E+02 3.07533496E+03 drn11
  1 36 34 7.74161520E+02 3.07533496E+03 drn11
  1 39 32 7.65139440E+02 3.07533496E+03 drn11
  1 35 34 7.70564880E+02 3.07533496E+03 drn11
  1 31 27 7.33653600E+02 3.07533496E+03 drn11
  1 30 24 7.20882480E+02 3.07533496E+03 drn11
  1 30 23 7.17529680E+02 3.07533496E+03 drn11
  1 40 33 7.78062960E+02 3.07533496E+03 drn11
  1 36 31 7.64377440E+02 3.07533496E+03 drn11
  1 39 34 7.89371040E+02 3.07533496E+03 drn11
  1 36 33 7.70229600E+02 3.07533496E+03 drn11
  1 36 32 7.64590800E+02 3.07533496E+03 drn11
  1 38 33 7.79068800E+02 3.07533496E+03 drn11
  1 28 33 7.52337840E+02 1.54398349E+04 drn12
  1 29 34 7.54440960E+02 1.54398349E+04 drn12
  1 28 35 7.60049280E+02 1.54398349E+04 drn12
  1 28 34 7.55355360E+02 1.54398349E+04 drn12
  1 28 36 7.64438400E+02 1.54398349E+04 drn12
  1 28 27 7.29752160E+02 1.54398349E+04 drn12
  1 28 28 7.32922080E+02 1.54398349E+04 drn12
  1 28 37 7.71479280E+02 1.54398349E+04 drn12
  1 29 32 7.47765840E+02 1.54398349E+04 drn12
  1 28 32 7.47613440E+02 1.54398349E+04 drn12
  1 28 30 7.40572560E+02 1.54398349E+04 drn12
  1 29 33 7.50783360E+02 1.54398349E+04 drn12
  1 28 26 7.26795600E+02 1.54398349E+04 drn12
  1 28 31 7.44260640E+02 1.54398349E+04 drn12
  1 29 31 7.43376720E+02 1.54398349E+04 drn12
  1 28 29 7.37128320E+02 1.54398349E+04 drn12
  1 29 30 7.40328720E+02 1.54398349E+04 drn12
  1 29 28 7.32861120E+02 1.54398349E+04 drn12
  1 29 29 7.36884480E+02 1.54398349E+04 drn12
  1 27 35 7.70168640E+02 1.54398349E+04 drn12
  1 27 34 7.67882640E+02 1.54398349E+04 drn12
  1 27 27 7.32251520E+02 1.54398349E+04 drn12
  1 27 36 7.71235440E+02 1.54398349E+04 drn12
  1 28 38 7.78672560E+02 1.54398349E+04 drn12
  1 27 33 7.68309360E+02 1.54398349E+04 drn12
  1 27 28 7.34385120E+02 1.54398349E+04 drn12
  1 18 29 7.09604880E+02 5.18658163E+02 drn13
  1 7 13 6.59312880E+02 5.18658163E+02 drn13
  1 8 13 6.66231840E+02 5.18658163E+02 drn13
  1 8 15 6.63488640E+02 5.18658163E+02 drn13
  1 14 21 6.83483520E+02 5.18658163E+02 drn13
  1 15 29 7.29508320E+02 5.18658163E+02 drn13
  1 19 29 7.09147680E+02 5.18658163E+02 drn13
  1 16 28 7.03508880E+02 5.18658163E+02 drn13
  1 8 12 6.70986720E+02 5.18658163E+02 drn13
  1 9 15 6.70468560E+02 5.18658163E+02 drn13
  1 17 32 7.15700880E+02 5.18658163E+02 drn13
  1 16 24 6.91682640E+02 5.18658163E+02 drn13
  1 15 22 6.88055520E+02 5.18658163E+02 drn13
  1 13 20 6.79764960E+02 5.18658163E+02 drn13
  1 8 14 6.64098240E+02 5.18658163E+02 drn13
  1 19 30 7.11708000E+02 5.18658163E+02 drn13
  1 17 25 6.95431680E+02 5.18658163E+02 drn13
  1 18 30 7.12500480E+02 5.18658163E+02 drn13
  1 15 28 7.24905840E+02 5.18658163E+02 drn13
  1 14 22 6.83940720E+02 5.18658163E+02 drn13
  1 12 19 6.77265600E+02 5.18658163E+02 drn13
  1 10 13 6.83635920E+02 5.18658163E+02 drn13
  1 16 23 6.92048400E+02 5.18658163E+02 drn13
  1 10 12 6.86043840E+02 5.18658163E+02 drn13
  1 18 31 7.15304640E+02 5.18658163E+02 drn13
  1 12 20 6.77570400E+02 5.18658163E+02 drn13
  1 7 12 6.62330400E+02 5.18658163E+02 drn13
  1 12 18 6.85251360E+02 5.18658163E+02 drn13
  1 16 29 7.08172320E+02 5.18658163E+02 drn13
  1 9 13 6.74766240E+02 5.18658163E+02 drn13
  1 9 16 6.66963360E+02 5.18658163E+02 drn13
  1 15 31 7.35299520E+02 5.18658163E+02 drn13
  1 13 23 6.87659280E+02 5.18658163E+02 drn13
  1 17 31 7.15091280E+02 5.18658163E+02 drn13
  1 11 16 6.86226720E+02 5.18658163E+02 drn13
  1 17 26 6.98906400E+02 5.18658163E+02 drn13
  1 18 32 7.18200240E+02 5.18658163E+02 drn13
  1 16 30 7.11098400E+02 5.18658163E+02 drn13
  1 15 30 7.33836480E+02 5.18658163E+02 drn13
  1 15 23 6.88268880E+02 5.18658163E+02 drn13
  1 18 27 7.01984880E+02 5.18658163E+02 drn13
  1 15 27 7.21796880E+02 5.18658163E+02 drn13
  1 15 26 6.96498480E+02 5.18658163E+02 drn13
  1 11 17 6.85586640E+02 5.18658163E+02 drn13
  1 10 14 6.80862240E+02 5.18658163E+02 drn13
  1 9 14 6.73516560E+02 5.18658163E+02 drn13
  1 10 17 6.69858960E+02 5.18658163E+02 drn13
  1 9 12 6.76991280E+02 5.18658163E+02 drn13
  1 15 32 7.24204800E+02 5.18658163E+02 drn13
  1 14 25 7.12165200E+02 5.18658163E+02 drn13
  1 10 16 6.77570400E+02 5.18658163E+02 drn13
  1 18 28 7.05002400E+02 5.18658163E+02 drn13
  1 14 26 7.14786480E+02 5.18658163E+02 drn13
  1 10 15 6.79886880E+02 5.18658163E+02 drn13
  1 11 18 6.74522400E+02 5.18658163E+02 drn13
  1 12 17 6.94486800E+02 5.18658163E+02 drn13
  1 11 15 6.89305200E+02 5.18658163E+02 drn13
  1 12 22 6.99241680E+02 5.18658163E+02 drn13
  1 10 11 6.86074320E+02 5.18658163E+02 drn13
  1 16 33 7.22406480E+02 5.18658163E+02 drn13
  1 19 28 7.06313040E+02 5.18658163E+02 drn13
  1 13 24 7.08141840E+02 5.18658163E+02 drn13
  1 14 27 7.24448640E+02 5.18658163E+02 drn13
  1 19 31 7.14115920E+02 5.18658163E+02 drn13
  1 13 19 6.80069760E+02 5.18658163E+02 drn13
  1 5 11 6.52058640E+02 5.18658163E+02 drn13
  1 9 11 6.78393360E+02 5.18658163E+02 drn13
  1 8 11 6.73089840E+02 5.18658163E+02 drn13
  1 18 26 7.01862960E+02 5.18658163E+02 drn13
  1 14 33 7.26399360E+02 5.18658163E+02 drn13
  1 15 21 6.87598320E+02 5.18658163E+02 drn13
  1 17 24 6.96711840E+02 5.18658163E+02 drn13
  1 7 11 6.67603440E+02 5.18658163E+02 drn13
  1 14 20 6.82782480E+02 5.18658163E+02 drn13
  1 16 22 6.92170320E+02 5.18658163E+02 drn13
  1 15 34 7.27710000E+02 5.18658163E+02 drn13
  1 12 16 6.99363600E+02 5.18658163E+02 drn13
  1 14 32 7.48344960E+02 5.18658163E+02 drn13
  1 14 28 7.31001840E+02 5.18658163E+02 drn13
  1 9 18 6.68456880E+02 5.18658163E+02 drn13
  1 11 14 6.92840880E+02 5.18658163E+02 drn13
  1 13 25 7.15700880E+02 5.18658163E+02 drn13
  1 12 23 7.09269600E+02 5.18658163E+02 drn13
  1 6 14 6.59312880E+02 5.18658163E+02 drn13
  1 14 31 7.46699040E+02 5.18658163E+02 drn13
  1 8 17 6.65500320E+02 5.18658163E+02 drn13
  1 14 29 7.38896160E+02 5.18658163E+02 drn13
  1 10 19 6.71474400E+02 5.18658163E+02 drn13
  1 5 12 6.54801840E+02 5.18658163E+02 drn13
  1 14 30 7.42340400E+02 5.18658163E+02 drn13
  1 17 33 7.20272880E+02 5.18658163E+02 drn13
  1 18 25 7.10427840E+02 5.18658163E+02 drn13
  1 19 32 7.20120480E+02 5.18658163E+02 drn13
  1 19 27 7.04606160E+02 5.18658163E+02 drn13
  1 16 34 7.30331280E+02 5.18658163E+02 drn13
  1 11 13 6.96285120E+02 5.18658163E+02 drn13
  1 17 23 6.96803280E+02 5.18658163E+02 drn13
  1 13 26 7.25302080E+02 5.18658163E+02 drn13
  1 20 30 7.16371440E+02 5.18658163E+02 drn13
  1 13 18 6.94730640E+02 5.18658163E+02 drn13
  1 14 19 6.99241680E+02 5.18658163E+02 drn13
  1 7 16 6.63915360E+02 5.18658163E+02 drn13
  1 12 15 7.03173600E+02 5.18658163E+02 drn13
  1 11 12 6.96071760E+02 5.18658163E+02 drn13
  1 18 33 7.32800160E+02 5.18658163E+02 drn13
  1 16 21 6.92444640E+02 5.18658163E+02 drn13
  1 20 29 7.11067920E+02 5.18658163E+02 drn13
  1 24 13 7.05429120E+02 1.59699852E+03 drn14
  1 25 13 6.88817520E+02 1.59699852E+03 drn14
  1 23 10 6.75071040E+02 1.59699852E+03 drn14
  1 22 10 6.93115200E+02 1.59699852E+03 drn14
  1 24 12 6.95858400E+02 1.59699852E+03 drn14
  1 22 11 7.00643760E+02 1.59699852E+03 drn14
  1 25 14 6.94456320E+02 1.59699852E+03 drn14
  1 23 11 6.93663840E+02 1.59699852E+03 drn14
  1 24 11 6.77966640E+02 1.59699852E+03 drn14
  1 25 12 6.80679360E+02 1.59699852E+03 drn14
  1 22 9 6.79216320E+02 1.59699852E+03 drn14
  1 23 12 7.03204080E+02 1.59699852E+03 drn14
  1 24 14 7.07075040E+02 1.59699852E+03 drn14
  1 22 8 6.67542480E+02 1.59699852E+03 drn14
  1 24 16 7.07898000E+02 1.59699852E+03 drn14
  1 23 9 6.70803840E+02 1.59699852E+03 drn14
  1 21 9 6.93785760E+02 1.59699852E+03 drn14
  1 24 15 7.06282560E+02 1.59699852E+03 drn14
  1 21 8 6.79307760E+02 1.59699852E+03 drn14
  1 25 15 7.00857120E+02 1.59699852E+03 drn14
  1 21 10 7.06678800E+02 1.59699852E+03 drn14
  1 25 11 6.79063920E+02 1.59699852E+03 drn14
  1 25 16 7.10885040E+02 1.59699852E+03 drn14
  1 24 17 7.14054960E+02 1.59699852E+03 drn14
  1 23 13 7.13872080E+02 1.59699852E+03 drn14
  1 22 12 7.08172320E+02 1.59699852E+03 drn14
  1 21 11 7.15182720E+02 1.59699852E+03 drn14
  1 28 5 6.96711840E+02 2.41739284E+02 drn15
  1 27 5 6.76869360E+02 2.41739284E+02 drn15
  1 29 5 6.69371280E+02 2.41739284E+02 drn15
  1 35 12 6.79795440E+02 2.41739284E+02 drn15
  1 28 4 6.86805840E+02 2.41739284E+02 drn15
  1 32 10 6.87659280E+02 2.41739284E+02 drn15
  1 33 10 6.88146960E+02 2.41739284E+02 drn15
  1 27 6 7.05215760E+02 2.41739284E+02 drn15
  1 34 11 6.83087280E+02 2.41739284E+02 drn15
  1 28 8 6.94364880E+02 2.41739284E+02 drn15
  1 28 6 6.88695600E+02 2.41739284E+02 drn15
  1 29 3 6.80069760E+02 2.41739284E+02 drn15
  1 27 4 6.75924480E+02 2.41739284E+02 drn15
  1 32 9 6.75772080E+02 2.41739284E+02 drn15
  1 29 4 6.69767520E+02 2.41739284E+02 drn15
  1 29 6 6.77570400E+02 2.41739284E+02 drn15
  1 28 7 6.88390800E+02 2.41739284E+02 drn15
  1 27 7 6.96559440E+02 2.41739284E+02 drn15
  1 30 7 6.74705280E+02 2.41739284E+02 drn15
  1 28 3 6.72815520E+02 2.41739284E+02 drn15
  1 30 8 6.94608720E+02 2.41739284E+02 drn15
  1 29 8 6.97077600E+02 2.41739284E+02 drn15
  1 29 7 6.88512720E+02 2.41739284E+02 drn15
  1 31 9 6.75833040E+02 2.41739284E+02 drn15
  1 31 10 6.91956960E+02 2.41739284E+02 drn15
  1 30 9 7.27801440E+02 2.41739284E+02 drn15
  1 27 8 6.98174880E+02 2.41739284E+02 drn15
  1 27 3 6.63641040E+02 2.41739284E+02 drn15
  1 34 12 7.14877920E+02 2.41739284E+02 drn15
  1 29 9 7.05093840E+02 2.41739284E+02 drn15
  1 28 9 7.05612000E+02 2.41739284E+02 drn15
  1 26 5 6.66963360E+02 2.41739284E+02 drn15
  1 33 11 6.91012080E+02 2.41739284E+02 drn15
  1 35 13 7.01253360E+02 2.41739284E+02 drn15
  1 30 10 7.34781360E+02 2.41739284E+02 drn15
  1 27 9 7.19388960E+02 2.41739284E+02 drn15
  1 32 11 7.01100960E+02 2.41739284E+02 drn15
  1 34 13 7.23900000E+02 2.41739284E+02 drn15
  1 20 6 6.63122880E+02 6.38318207E+03 drn16
  1 18 8 6.80069760E+02 6.38318207E+03 drn16
  1 18 9 6.92444640E+02 6.38318207E+03 drn16
  1 20 7 6.69950400E+02 6.38318207E+03 drn16
  1 20 8 6.86958240E+02 6.38318207E+03 drn16
  1 17 8 6.79185840E+02 6.38318207E+03 drn16
  1 19 8 6.89518560E+02 6.38318207E+03 drn16
  1 16 9 6.85617120E+02 6.38318207E+03 drn16
  1 19 7 6.68182560E+02 6.38318207E+03 drn16
  1 18 7 6.57971760E+02 6.38318207E+03 drn16
  1 17 9 6.87811680E+02 6.38318207E+03 drn16
  1 19 9 7.08873360E+02 6.38318207E+03 drn16
  1 21 7 6.65378400E+02 6.38318207E+03 drn16
  1 15 9 6.82447200E+02 6.38318207E+03 drn16
  1 16 8 6.63519120E+02 6.38318207E+03 drn16
  1 20 9 7.13079600E+02 6.38318207E+03 drn16
  1 8 10 6.53765520E+02 3.37874886E+03 drn17
  1 10 9 6.51875760E+02 3.37874886E+03 drn17
  1 9 10 6.50077440E+02 3.37874886E+03 drn17
  1 7 10 6.48736320E+02 3.37874886E+03 drn17
  1 6 10 6.51692880E+02 3.37874886E+03 drn17
  1 10 10 6.51570960E+02 3.37874886E+03 drn17
  1 11 9 6.53186400E+02 3.37874886E+03 drn17
  1 24 6 6.64921200E+02 4.72690017E+02 drn18
  1 24 7 6.66231840E+02 4.72690017E+02 drn18
  1 27 10 7.02990720E+02 4.72690017E+02 drn18
  1 25 7 6.66628080E+02 4.72690017E+02 drn18
  1 28 11 7.17255360E+02 4.72690017E+02 drn18
  1 29 11 7.29843600E+02 4.72690017E+02 drn18
  1 26 9 6.86592480E+02 4.72690017E+02 drn18
  1 25 8 6.78759120E+02 4.72690017E+02 drn18
  1 25 9 6.73211760E+02 4.72690017E+02 drn18
  1 27 11 6.82172880E+02 4.72690017E+02 drn18
  1 28 10 7.30879920E+02 4.72690017E+02 drn18
  1 29 10 7.33775520E+02 4.72690017E+02 drn18
  1 30 11 7.33165920E+02 4.72690017E+02 drn18
  1 26 10 6.79185840E+02 4.72690017E+02 drn18
  1 25 6 6.66658560E+02 4.72690017E+02 drn18
  1 26 8 6.83178720E+02 4.72690017E+02 drn18
  1 26 6 6.66932880E+02 4.72690017E+02 drn18
  1 23 6 6.63945840E+02 4.72690017E+02 drn18
  1 26 7 6.80161200E+02 4.72690017E+02 drn18
  1 23 7 6.66902400E+02 4.72690017E+02 drn18
  1 31 11 7.36092000E+02 4.72690017E+02 drn18
END period  1

