# File generated by Flopy version 3.8.0 on 08/20/2024 at 11:26:03.
BEGIN options
  auxiliary  multiplier
  AUXMULTNAME  multiplier
  BOUNDNAMES
  SAVE_FLOWS
  TS6  FILEIN  mf6-tv_hist-pumping_rates-irr.ts
END options

BEGIN dimensions
  MAXBOUND  5657
END dimensions

BEGIN period  1
  1 5 8 pump_irr97 5.65281000E-03 pump_irr97
  5 5 8 pump_irr97 3.89538000E-03 pump_irr97
  1 5 9 pump_irr94 8.83941000E-03 pump_irr94
  1 5 9 pump_irr97 1.67956600E-02 pump_irr97
  5 5 9 pump_irr94 6.23597000E-03 pump_irr94
  5 5 9 pump_irr97 1.18489000E-02 pump_irr97
  1 5 10 pump_irr94 1.81581100E-02 pump_irr94
  1 5 10 pump_irr97 8.62551000E-03 pump_irr97
  5 5 10 pump_irr94 1.19926500E-02 pump_irr94
  5 5 10 pump_irr97 5.69677000E-03 pump_irr97
  1 5 11 pump_irr94 2.72371600E-02 pump_irr94
  5 5 11 pump_irr94 1.79889700E-02 pump_irr94
  1 5 12 pump_irr94 1.04963100E-02 pump_irr94
  5 5 12 pump_irr94 4.57907000E-03 pump_irr94
  1 5 13 pump_irr94 1.50753800E-02 pump_irr94
  1 6 9 pump_irr97 2.91971000E-03 pump_irr97
  5 6 9 pump_irr97 1.85438000E-03 pump_irr97
  1 6 10 pump_irr94 9.21970000E-03 pump_irr94
  1 6 10 pump_irr97 5.83942000E-03 pump_irr97
  5 6 10 pump_irr94 5.85568000E-03 pump_irr94
  5 6 10 pump_irr97 3.70877000E-03 pump_irr97
  1 6 11 pump_irr94 1.84394000E-02 pump_irr94
  1 6 11 pump_irr97 8.75912000E-03 pump_irr97
  5 6 11 pump_irr94 1.17113600E-02 pump_irr94
  5 6 11 pump_irr97 5.56315000E-03 pump_irr97
  1 6 12 pump_irr94 1.84394000E-02 pump_irr94
  1 6 12 pump_irr97 2.91971000E-03 pump_irr97
  5 6 12 pump_irr94 1.17113600E-02 pump_irr94
  5 6 12 pump_irr97 1.85438000E-03 pump_irr97
  1 6 13 pump_irr94 1.96112100E-02 pump_irr94
  1 6 13 pump_irr97 3.10525000E-03 pump_irr97
  5 6 13 pump_irr94 1.05395500E-02 pump_irr94
  5 6 13 pump_irr97 1.66884000E-03 pump_irr97
  1 6 14 pump_irr35 4.59547380E-01 pump_irr35
  1 6 14 pump_irr94 6.92785000E-03 pump_irr94
  1 6 14 pump_irr97 2.19392000E-03 pump_irr97
  5 6 14 pump_irr35 5.40452620E-01 pump_irr35
  5 6 14 pump_irr94 8.14753000E-03 pump_irr94
  5 6 14 pump_irr97 2.58017000E-03 pump_irr97
  1 7 9 pump_irr97 8.75912000E-03 pump_irr97
  5 7 9 pump_irr97 5.56315000E-03 pump_irr97
  1 7 10 pump_irr97 1.16788300E-02 pump_irr97
  5 7 10 pump_irr97 7.41754000E-03 pump_irr97
  1 7 11 pump_irr97 5.83942000E-03 pump_irr97
  5 7 11 pump_irr97 3.70877000E-03 pump_irr97
  1 7 12 pump_irr94 9.15936000E-03 pump_irr94
  1 7 12 pump_irr97 5.80120000E-03 pump_irr97
  5 7 12 pump_irr94 5.91601000E-03 pump_irr94
  5 7 12 pump_irr97 3.74698000E-03 pump_irr97
  1 7 13 pump_irr94 9.15936000E-03 pump_irr94
  1 7 13 pump_irr97 5.80120000E-03 pump_irr97
  5 7 13 pump_irr94 5.91601000E-03 pump_irr94
  5 7 13 pump_irr97 3.74698000E-03 pump_irr97
  1 7 14 pump_irr94 1.38557000E-02 pump_irr94
  1 7 14 pump_irr97 2.19392000E-03 pump_irr97
  5 7 14 pump_irr94 1.62950500E-02 pump_irr94
  5 7 14 pump_irr97 2.58017000E-03 pump_irr97
  1 7 15 pump_irr94 1.38557000E-02 pump_irr94
  1 7 15 pump_irr95 2.63157000E-03 pump_irr95
  1 7 15 pump_irr97 2.19392000E-03 pump_irr97
  5 7 15 pump_irr94 1.62950500E-02 pump_irr94
  5 7 15 pump_irr95 3.09487000E-03 pump_irr95
  5 7 15 pump_irr97 2.58017000E-03 pump_irr97
  1 7 16 pump_irr94 2.77114000E-02 pump_irr94
  1 7 16 pump_irr95 2.63157000E-03 pump_irr95
  5 7 16 pump_irr94 3.25901100E-02 pump_irr94
  5 7 16 pump_irr95 3.09487000E-03 pump_irr95
  1 8 9 pump_irr97 1.45030100E-02 pump_irr97
  5 8 9 pump_irr97 9.36746000E-03 pump_irr97
  1 8 10 pump_irr97 1.74036100E-02 pump_irr97
  5 8 10 pump_irr97 1.12409500E-02 pump_irr97
  1 8 11 pump_irr97 2.90060000E-03 pump_irr97
  5 8 11 pump_irr97 1.87349000E-03 pump_irr97
  1 8 12 pump_irr97 6.04990000E-03 pump_irr97
  5 8 12 pump_irr97 3.49829000E-03 pump_irr97
  1 8 13 pump_irr97 2.63073000E-03 pump_irr97
  4 8 13 pump_irr97 2.58549000E-03 pump_irr97
  5 8 13 pump_irr97 4.33196000E-03 pump_irr97
  1 8 14 pump_irr97 2.40991000E-03 pump_irr97
  5 8 14 pump_irr97 2.36418000E-03 pump_irr97
  1 8 15 pump_irr94 7.60989000E-03 pump_irr94
  1 8 15 pump_irr97 4.81982000E-03 pump_irr97
  5 8 15 pump_irr94 7.46549000E-03 pump_irr94
  5 8 15 pump_irr97 4.72836000E-03 pump_irr97
  1 8 16 pump_irr94 2.89082100E-02 pump_irr94
  1 8 16 pump_irr95 2.74522000E-03 pump_irr95
  1 8 16 pump_irr97 4.57735000E-03 pump_irr97
  5 8 16 pump_irr94 3.13933000E-02 pump_irr94
  5 8 16 pump_irr95 2.98122000E-03 pump_irr95
  5 8 16 pump_irr97 4.97084000E-03 pump_irr97
  1 8 17 pump_irr94 7.53768800E-02 pump_irr94
  1 8 17 pump_irr95 5.72644000E-03 pump_irr95
  1 9 9 pump_irr97 8.09874000E-03 pump_irr97
  5 9 9 pump_irr97 6.22354000E-03 pump_irr97
  1 9 10 pump_irr97 1.16024100E-02 pump_irr97
  5 9 10 pump_irr97 7.49397000E-03 pump_irr97
  1 9 12 pump_irr97 2.60817000E-03 pump_irr97
  4 9 12 pump_irr97 2.51690000E-03 pump_irr97
  5 9 12 pump_irr97 4.42312000E-03 pump_irr97
  1 9 13 pump_irr97 3.57914000E-03 pump_irr97
  4 9 13 pump_irr97 2.73100000E-03 pump_irr97
  5 9 13 pump_irr97 3.23805000E-03 pump_irr97
  1 9 14 pump_irr97 5.10517000E-03 pump_irr97
  4 9 14 pump_irr97 4.20882000E-03 pump_irr97
  5 9 14 pump_irr97 5.00830000E-03 pump_irr97
  1 9 15 pump_irr97 3.40345000E-03 pump_irr97
  4 9 15 pump_irr97 2.80588000E-03 pump_irr97
  5 9 15 pump_irr97 3.33886000E-03 pump_irr97
  1 9 16 pump_irr94 1.52197800E-02 pump_irr94
  1 9 16 pump_irr97 2.40991000E-03 pump_irr97
  5 9 16 pump_irr94 1.49309700E-02 pump_irr94
  5 9 16 pump_irr97 2.36418000E-03 pump_irr97
  1 9 17 pump_irr94 3.61352600E-02 pump_irr94
  1 9 17 pump_irr95 2.74522000E-03 pump_irr95
  1 9 17 pump_irr97 2.28867000E-03 pump_irr97
  5 9 17 pump_irr94 3.92416200E-02 pump_irr94
  5 9 17 pump_irr95 2.98122000E-03 pump_irr95
  5 9 17 pump_irr97 2.48542000E-03 pump_irr97
  1 9 18 pump_irr94 2.20105300E-02 pump_irr94
  1 9 18 pump_irr95 1.67216000E-03 pump_irr95
  4 9 18 pump_irr94 1.66043400E-02 pump_irr94
  4 9 18 pump_irr95 1.26144000E-03 pump_irr95
  5 9 18 pump_irr94 3.67620200E-02 pump_irr94
  5 9 18 pump_irr95 2.79284000E-03 pump_irr95
  1 10 8 pump_irr97 9.54819000E-03 pump_irr97
  1 10 9 pump_irr97 1.13935400E-02 pump_irr97
  1 10 9 pump_irr102 4.58972000E-03 pump_irr102
  5 10 9 pump_irr97 2.92874000E-03 pump_irr97
  5 10 9 pump_irr102 1.17980000E-03 pump_irr102
  1 10 10 pump_irr97 7.73095000E-03 pump_irr97
  1 10 10 pump_irr102 3.11430000E-03 pump_irr102
  5 10 10 pump_irr97 6.59133000E-03 pump_irr97
  5 10 10 pump_irr102 2.65522000E-03 pump_irr102
  1 10 11 pump_irr97 2.87401000E-03 pump_irr97
  1 10 11 pump_irr102 3.47326000E-03 pump_irr102
  5 10 11 pump_irr97 1.90009000E-03 pump_irr97
  5 10 11 pump_irr102 2.29626000E-03 pump_irr102
  1 10 12 pump_irr97 4.50680000E-04 pump_irr97
  4 10 12 pump_irr97 1.88070000E-03 pump_irr97
  5 10 12 pump_irr97 2.44271000E-03 pump_irr97
  1 10 13 pump_irr97 3.47320000E-03 pump_irr97
  4 10 13 pump_irr97 2.77403000E-03 pump_irr97
  5 10 13 pump_irr97 3.30096000E-03 pump_irr97
  1 10 14 pump_irr97 5.10517000E-03 pump_irr97
  4 10 14 pump_irr97 4.20882000E-03 pump_irr97
  5 10 14 pump_irr97 5.00830000E-03 pump_irr97
  1 10 15 pump_irr97 5.10517000E-03 pump_irr97
  4 10 15 pump_irr97 4.20882000E-03 pump_irr97
  5 10 15 pump_irr97 5.00830000E-03 pump_irr97
  1 10 16 pump_irr97 5.10517000E-03 pump_irr97
  4 10 16 pump_irr97 4.20882000E-03 pump_irr97
  5 10 16 pump_irr97 5.00830000E-03 pump_irr97
  1 10 17 pump_irr94 5.02751000E-03 pump_irr94
  1 10 17 pump_irr97 3.18424000E-03 pump_irr97
  4 10 17 pump_irr94 4.58816000E-03 pump_irr94
  4 10 17 pump_irr97 2.90597000E-03 pump_irr97
  5 10 17 pump_irr94 5.45970000E-03 pump_irr94
  5 10 17 pump_irr97 3.45797000E-03 pump_irr97
  1 10 18 pump_irr94 6.03015100E-02 pump_irr94
  1 10 18 pump_irr95 5.72644000E-03 pump_irr95
  1 10 18 pump_irr97 4.77409000E-03 pump_irr97
  1 10 19 pump_irr94 3.64860600E-02 pump_irr94
  1 10 19 pump_irr95 1.66312000E-03 pump_irr95
  4 10 19 pump_irr94 2.77355400E-02 pump_irr94
  4 10 19 pump_irr95 1.26425000E-03 pump_irr95
  5 10 19 pump_irr94 6.14065300E-02 pump_irr94
  5 10 19 pump_irr95 2.79906000E-03 pump_irr95
  1 11 8 pump_irr97 1.90963700E-02 pump_irr97
  1 11 8 pump_irr102 5.76952000E-03 pump_irr102
  1 11 9 pump_irr97 2.13108900E-02 pump_irr97
  1 11 9 pump_irr102 1.15390400E-02 pump_irr102
  1 11 10 pump_irr97 9.54819000E-03 pump_irr97
  1 11 10 pump_irr102 1.15390400E-02 pump_irr102
  1 11 11 pump_irr97 4.77409000E-03 pump_irr97
  1 11 11 pump_irr102 5.76952000E-03 pump_irr102
  4 11 12 pump_irr97 2.07211000E-03 pump_irr97
  4 11 12 pump_irr102 2.50415000E-03 pump_irr102
  5 11 12 pump_irr97 2.70199000E-03 pump_irr97
  5 11 12 pump_irr102 3.26536000E-03 pump_irr102
  1 11 13 pump_irr97 1.70172000E-03 pump_irr97
  1 11 13 pump_irr102 2.05654000E-03 pump_irr102
  4 11 13 pump_irr97 1.40294000E-03 pump_irr97
  4 11 13 pump_irr102 1.69546000E-03 pump_irr102
  5 11 13 pump_irr97 1.66943000E-03 pump_irr97
  5 11 13 pump_irr102 2.01752000E-03 pump_irr102
  1 11 14 pump_irr97 1.70172000E-03 pump_irr97
  1 11 14 pump_irr102 2.05654000E-03 pump_irr102
  4 11 14 pump_irr97 1.40294000E-03 pump_irr97
  4 11 14 pump_irr102 1.69546000E-03 pump_irr102
  5 11 14 pump_irr97 1.66943000E-03 pump_irr97
  5 11 14 pump_irr102 2.01752000E-03 pump_irr102
  1 11 15 pump_irr97 3.40345000E-03 pump_irr97
  1 11 15 pump_irr102 2.05654000E-03 pump_irr102
  4 11 15 pump_irr97 2.80588000E-03 pump_irr97
  4 11 15 pump_irr102 1.69546000E-03 pump_irr102
  5 11 15 pump_irr97 3.33886000E-03 pump_irr97
  5 11 15 pump_irr102 2.01752000E-03 pump_irr102
  1 11 16 pump_irr97 5.10517000E-03 pump_irr97
  1 11 16 pump_irr102 2.05654000E-03 pump_irr102
  4 11 16 pump_irr97 4.20882000E-03 pump_irr97
  4 11 16 pump_irr102 1.69546000E-03 pump_irr102
  5 11 16 pump_irr97 5.00830000E-03 pump_irr97
  5 11 16 pump_irr102 2.01752000E-03 pump_irr102
  1 11 17 pump_irr97 4.77636000E-03 pump_irr97
  1 11 17 pump_irr102 1.92409000E-03 pump_irr102
  4 11 17 pump_irr97 4.35896000E-03 pump_irr97
  4 11 17 pump_irr102 1.75594000E-03 pump_irr102
  5 11 17 pump_irr97 5.18696000E-03 pump_irr97
  5 11 17 pump_irr102 2.08949000E-03 pump_irr102
  1 11 18 pump_irr94 1.50753800E-02 pump_irr94
  1 11 18 pump_irr95 5.72644000E-03 pump_irr95
  1 11 18 pump_irr97 1.43222800E-02 pump_irr97
  1 11 19 pump_irr94 1.32819800E-02 pump_irr94
  1 11 19 pump_irr95 3.36347000E-03 pump_irr95
  1 11 19 pump_irr97 2.80410000E-03 pump_irr97
  4 11 19 pump_irr94 1.00965300E-02 pump_irr94
  4 11 19 pump_irr95 2.55680000E-03 pump_irr95
  4 11 19 pump_irr97 2.13159000E-03 pump_irr97
  5 11 19 pump_irr94 2.18476200E-02 pump_irr94
  5 11 19 pump_irr95 5.53260000E-03 pump_irr95
  5 11 19 pump_irr97 4.61249000E-03 pump_irr97
  1 11 20 pump_irr94 3.14712000E-03 pump_irr94
  1 11 20 pump_irr95 4.78178000E-03 pump_irr95
  4 11 20 pump_irr94 4.20955000E-03 pump_irr94
  4 11 20 pump_irr95 6.39605000E-03 pump_irr95
  5 11 20 pump_irr94 7.71871000E-03 pump_irr94
  5 11 20 pump_irr95 1.17279300E-02 pump_irr95
  1 11 21 pump_irr95 5.04260000E-03 pump_irr95
  4 11 21 pump_irr95 6.82542000E-03 pump_irr95
  5 11 21 pump_irr95 1.10377400E-02 pump_irr95
  1 11 22 pump_irr95 2.50378000E-03 pump_irr95
  4 11 22 pump_irr95 3.46858000E-03 pump_irr95
  5 11 22 pump_irr95 5.48052000E-03 pump_irr95
  1 12 8 pump_irr97 1.90963700E-02 pump_irr97
  1 12 8 pump_irr102 5.76952000E-03 pump_irr102
  1 12 9 pump_irr97 1.90963700E-02 pump_irr97
  1 12 9 pump_irr102 1.15390400E-02 pump_irr102
  1 12 10 pump_irr102 1.15390400E-02 pump_irr102
  1 12 11 pump_irr102 1.15390400E-02 pump_irr102
  4 12 12 pump_irr81 4.38416000E-03 pump_irr81
  4 12 12 pump_irr102 5.00831000E-03 pump_irr102
  5 12 12 pump_irr81 5.71685000E-03 pump_irr81
  5 12 12 pump_irr102 6.53073000E-03 pump_irr102
  1 12 13 pump_irr81 3.60050000E-03 pump_irr81
  1 12 13 pump_irr102 2.05654000E-03 pump_irr102
  4 12 13 pump_irr81 2.96833000E-03 pump_irr81
  4 12 13 pump_irr102 1.69546000E-03 pump_irr102
  5 12 13 pump_irr81 3.53218000E-03 pump_irr81
  5 12 13 pump_irr102 2.01752000E-03 pump_irr102
  1 12 14 pump_irr102 2.34318000E-03 pump_irr102
  4 12 14 pump_irr102 3.24527000E-03 pump_irr102
  5 12 14 pump_irr102 5.95059000E-03 pump_irr102
  1 12 15 pump_irr97 9.69450000E-04 pump_irr97
  1 12 15 pump_irr102 2.34318000E-03 pump_irr102
  4 12 15 pump_irr97 1.34268000E-03 pump_irr97
  4 12 15 pump_irr102 3.24527000E-03 pump_irr102
  5 12 15 pump_irr97 2.46196000E-03 pump_irr97
  5 12 15 pump_irr102 5.95059000E-03 pump_irr102
  1 12 16 pump_irr97 8.93300000E-04 pump_irr97
  1 12 16 pump_irr102 1.07956000E-03 pump_irr102
  4 12 16 pump_irr97 1.36955000E-03 pump_irr97
  4 12 16 pump_irr102 1.65511000E-03 pump_irr102
  5 12 16 pump_irr97 2.51124000E-03 pump_irr97
  5 12 16 pump_irr102 3.03485000E-03 pump_irr102
  1 12 17 pump_irr97 4.77636000E-03 pump_irr97
  1 12 17 pump_irr102 1.92409000E-03 pump_irr102
  4 12 17 pump_irr97 4.35896000E-03 pump_irr97
  4 12 17 pump_irr102 1.75594000E-03 pump_irr102
  5 12 17 pump_irr97 5.18696000E-03 pump_irr97
  5 12 17 pump_irr102 2.08949000E-03 pump_irr102
  1 12 18 pump_irr97 5.27244000E-03 pump_irr97
  4 12 18 pump_irr97 2.81576000E-03 pump_irr97
  5 12 18 pump_irr97 6.23409000E-03 pump_irr97
  1 12 19 pump_irr95 1.37715000E-03 pump_irr95
  1 12 19 pump_irr97 3.44437000E-03 pump_irr97
  4 12 19 pump_irr95 1.43321000E-03 pump_irr95
  4 12 19 pump_irr97 3.58457000E-03 pump_irr97
  5 12 19 pump_irr95 2.91608000E-03 pump_irr95
  5 12 19 pump_irr97 7.29334000E-03 pump_irr97
  1 12 20 pump_irr95 3.48853000E-03 pump_irr95
  4 12 20 pump_irr95 4.83156000E-03 pump_irr95
  5 12 20 pump_irr95 8.85923000E-03 pump_irr95
  1 12 21 pump_irr95 5.00756000E-03 pump_irr95
  4 12 21 pump_irr95 6.93716000E-03 pump_irr95
  5 12 21 pump_irr95 1.09610400E-02 pump_irr95
  1 12 22 pump_irr95 3.59575000E-03 pump_irr95
  4 12 22 pump_irr95 5.71284000E-03 pump_irr95
  5 12 22 pump_irr95 7.87073000E-03 pump_irr95
  1 12 23 pump_irr95 3.12171000E-03 pump_irr95
  4 12 23 pump_irr95 8.16902000E-03 pump_irr95
  5 12 23 pump_irr95 5.76212000E-03 pump_irr95
  6 12 23 pump_irr95 1.26470000E-04 pump_irr95
  1 12 24 pump_irr95 2.81331000E-03 pump_irr95
  4 12 24 pump_irr95 8.08035000E-03 pump_irr95
  5 12 24 pump_irr95 5.58516000E-03 pump_irr95
  6 12 24 pump_irr95 7.00500000E-04 pump_irr95
  1 13 8 pump_irr97 9.54819000E-03 pump_irr97
  1 13 8 pump_irr102 5.76952000E-03 pump_irr102
  1 13 9 pump_irr97 4.77409000E-03 pump_irr97
  1 13 9 pump_irr102 5.76952000E-03 pump_irr102
  1 13 10 pump_irr102 1.15390400E-02 pump_irr102
  1 13 11 pump_irr102 5.76952000E-03 pump_irr102
  1 13 12 pump_irr81 2.70996000E-03 pump_irr81
  1 13 12 pump_irr102 3.09577000E-03 pump_irr102
  4 13 12 pump_irr81 1.41814000E-03 pump_irr81
  4 13 12 pump_irr102 1.62004000E-03 pump_irr102
  5 13 12 pump_irr81 5.97290000E-03 pump_irr81
  5 13 12 pump_irr102 6.82323000E-03 pump_irr102
  4 13 13 pump_irr81 3.44239000E-03 pump_irr81
  4 13 13 pump_irr102 3.93246000E-03 pump_irr102
  5 13 13 pump_irr81 6.65862000E-03 pump_irr81
  5 13 13 pump_irr102 7.60657000E-03 pump_irr102
  1 13 14 pump_irr102 1.96754000E-03 pump_irr102
  4 13 14 pump_irr102 3.37783000E-03 pump_irr102
  5 13 14 pump_irr102 6.19366000E-03 pump_irr102
  1 13 15 pump_irr81 1.89005000E-03 pump_irr81
  1 13 15 pump_irr102 2.15912000E-03 pump_irr102
  4 13 15 pump_irr81 2.89770000E-03 pump_irr81
  4 13 15 pump_irr102 3.31022000E-03 pump_irr102
  5 13 15 pump_irr81 5.31327000E-03 pump_irr81
  5 13 15 pump_irr102 6.06969000E-03 pump_irr102
  1 13 16 pump_irr97 7.31470000E-04 pump_irr97
  1 13 16 pump_irr102 8.83990000E-04 pump_irr102
  4 13 16 pump_irr97 1.42666000E-03 pump_irr97
  4 13 16 pump_irr102 1.72413000E-03 pump_irr102
  5 13 16 pump_irr97 2.61596000E-03 pump_irr97
  5 13 16 pump_irr102 3.16140000E-03 pump_irr102
  1 13 17 pump_irr97 1.22856000E-03 pump_irr97
  1 13 17 pump_irr102 7.42360000E-04 pump_irr102
  4 13 17 pump_irr97 2.40212000E-03 pump_irr97
  4 13 17 pump_irr102 1.45149000E-03 pump_irr102
  5 13 17 pump_irr97 5.91751000E-03 pump_irr97
  5 13 17 pump_irr102 3.57567000E-03 pump_irr102
  1 13 18 pump_irr97 3.35707000E-03 pump_irr97
  1 13 18 pump_irr102 2.02852000E-03 pump_irr102
  4 13 18 pump_irr97 2.04014000E-03 pump_irr97
  4 13 18 pump_irr102 1.23276000E-03 pump_irr102
  5 13 18 pump_irr97 4.15098000E-03 pump_irr97
  5 13 18 pump_irr102 2.50824000E-03 pump_irr102
  1 13 19 pump_irr95 1.19544000E-03 pump_irr95
  1 13 19 pump_irr97 1.99327000E-03 pump_irr97
  1 13 19 pump_irr102 1.20444000E-03 pump_irr102
  4 13 19 pump_irr95 1.59901000E-03 pump_irr95
  4 13 19 pump_irr97 2.66617000E-03 pump_irr97
  4 13 19 pump_irr102 1.61104000E-03 pump_irr102
  5 13 19 pump_irr95 2.93198000E-03 pump_irr95
  5 13 19 pump_irr97 4.88875000E-03 pump_irr97
  5 13 19 pump_irr102 2.95404000E-03 pump_irr102
  1 13 20 pump_irr95 2.52130000E-03 pump_irr95
  1 13 20 pump_irr97 2.10199000E-03 pump_irr97
  1 13 20 pump_irr102 1.27013000E-03 pump_irr102
  4 13 20 pump_irr95 3.41271000E-03 pump_irr95
  4 13 20 pump_irr97 2.84515000E-03 pump_irr97
  4 13 20 pump_irr102 1.71919000E-03 pump_irr102
  5 13 20 pump_irr95 5.51887000E-03 pump_irr95
  5 13 20 pump_irr97 4.60104000E-03 pump_irr97
  5 13 20 pump_irr102 2.78019000E-03 pump_irr102
  1 13 21 pump_irr95 5.00756000E-03 pump_irr95
  1 13 21 pump_irr97 1.04369000E-03 pump_irr97
  4 13 21 pump_irr95 6.93716000E-03 pump_irr95
  4 13 21 pump_irr97 1.44587000E-03 pump_irr97
  5 13 21 pump_irr95 1.09610400E-02 pump_irr95
  5 13 21 pump_irr97 2.28454000E-03 pump_irr97
  1 13 22 pump_irr95 3.36418000E-03 pump_irr95
  4 13 22 pump_irr95 6.45129000E-03 pump_irr95
  5 13 22 pump_irr95 7.36385000E-03 pump_irr95
  1 13 23 pump_irr95 4.16228000E-03 pump_irr95
  4 13 23 pump_irr95 1.08920300E-02 pump_irr95
  5 13 23 pump_irr95 7.68283000E-03 pump_irr95
  6 13 23 pump_irr95 1.68630000E-04 pump_irr95
  1 13 24 pump_irr95 1.87554000E-03 pump_irr95
  4 13 24 pump_irr95 5.38690000E-03 pump_irr95
  5 13 24 pump_irr95 3.72344000E-03 pump_irr95
  6 13 24 pump_irr95 4.67000000E-04 pump_irr95
  4 13 25 pump_irr95 3.45240000E-03 pump_irr95
  5 13 25 pump_irr95 1.88815000E-03 pump_irr95
  6 13 25 pump_irr95 3.85880000E-04 pump_irr95
  4 13 26 pump_irr95 5.02697000E-03 pump_irr95
  6 13 26 pump_irr95 6.99470000E-04 pump_irr95
  4 13 27 pump_irr95 1.00539400E-02 pump_irr95
  6 13 27 pump_irr95 1.39894000E-03 pump_irr95
  4 13 28 pump_irr95 1.00539400E-02 pump_irr95
  6 13 28 pump_irr95 1.39894000E-03 pump_irr95
  4 13 34 pump_irr95 1.14528800E-02 pump_irr95
  4 13 34 pump_irr102 5.76952000E-03 pump_irr102
  1 14 8 pump_irr97 9.54819000E-03 pump_irr97
  1 14 8 pump_irr102 5.76952000E-03 pump_irr102
  1 14 9 pump_irr102 5.76952000E-03 pump_irr102
  1 14 10 pump_irr102 1.15390400E-02 pump_irr102
  1 14 11 pump_irr102 1.15390400E-02 pump_irr102
  1 14 12 pump_irr81 2.66816000E-03 pump_irr81
  1 14 12 pump_irr102 3.04801000E-03 pump_irr102
  4 14 12 pump_irr81 1.39627000E-03 pump_irr81
  4 14 12 pump_irr102 1.59504000E-03 pump_irr102
  5 14 12 pump_irr81 6.03659000E-03 pump_irr81
  5 14 12 pump_irr102 6.89598000E-03 pump_irr102
  4 14 13 pump_irr81 2.67204000E-03 pump_irr81
  4 14 13 pump_irr102 3.05244000E-03 pump_irr102
  5 14 13 pump_irr81 7.42897000E-03 pump_irr81
  5 14 13 pump_irr102 8.48660000E-03 pump_irr102
  4 14 15 pump_irr81 2.67204000E-03 pump_irr81
  4 14 15 pump_irr102 1.52622000E-03 pump_irr102
  5 14 15 pump_irr81 7.42897000E-03 pump_irr81
  5 14 15 pump_irr102 4.24330000E-03 pump_irr102
  4 14 16 pump_irr81 2.67204000E-03 pump_irr81
  4 14 16 pump_irr102 1.52622000E-03 pump_irr102
  5 14 16 pump_irr81 7.42897000E-03 pump_irr81
  5 14 16 pump_irr102 4.24330000E-03 pump_irr102
  4 14 17 pump_irr81 2.67204000E-03 pump_irr81
  4 14 17 pump_irr97 1.26290000E-03 pump_irr97
  4 14 17 pump_irr102 1.52622000E-03 pump_irr102
  5 14 17 pump_irr81 7.42897000E-03 pump_irr81
  5 14 17 pump_irr97 3.51119000E-03 pump_irr97
  5 14 17 pump_irr102 4.24330000E-03 pump_irr102
  4 14 18 pump_irr97 1.26290000E-03 pump_irr97
  4 14 18 pump_irr102 1.52622000E-03 pump_irr102
  5 14 18 pump_irr97 3.51119000E-03 pump_irr97
  5 14 18 pump_irr102 4.24330000E-03 pump_irr102
  1 14 19 pump_irr97 1.93891000E-03 pump_irr97
  1 14 19 pump_irr102 1.17159000E-03 pump_irr102
  4 14 19 pump_irr97 2.68536000E-03 pump_irr97
  4 14 19 pump_irr102 1.62263000E-03 pump_irr102
  5 14 19 pump_irr97 4.92392000E-03 pump_irr97
  5 14 19 pump_irr102 2.97529000E-03 pump_irr102
  1 14 20 pump_irr95 1.26065000E-03 pump_irr95
  1 14 20 pump_irr97 2.10199000E-03 pump_irr97
  1 14 20 pump_irr102 1.27013000E-03 pump_irr102
  4 14 20 pump_irr95 1.70635000E-03 pump_irr95
  4 14 20 pump_irr97 2.84515000E-03 pump_irr97
  4 14 20 pump_irr102 1.71919000E-03 pump_irr102
  5 14 20 pump_irr95 2.75944000E-03 pump_irr95
  5 14 20 pump_irr97 4.60104000E-03 pump_irr97
  5 14 20 pump_irr102 2.78019000E-03 pump_irr102
  1 14 21 pump_irr95 1.25189000E-03 pump_irr95
  1 14 21 pump_irr96 2.04059000E-03 pump_irr96
  1 14 21 pump_irr97 1.04369000E-03 pump_irr97
  1 14 21 pump_irr102 1.26131000E-03 pump_irr102
  4 14 21 pump_irr95 1.73429000E-03 pump_irr95
  4 14 21 pump_irr96 2.82691000E-03 pump_irr96
  4 14 21 pump_irr97 1.44587000E-03 pump_irr97
  4 14 21 pump_irr102 1.74734000E-03 pump_irr102
  5 14 21 pump_irr95 2.74026000E-03 pump_irr95
  5 14 21 pump_irr96 4.46665000E-03 pump_irr96
  5 14 21 pump_irr97 2.28454000E-03 pump_irr97
  5 14 21 pump_irr102 2.76087000E-03 pump_irr102
  1 14 22 pump_irr95 2.08114000E-03 pump_irr95
  1 14 22 pump_irr96 1.69614000E-03 pump_irr96
  1 14 22 pump_irr97 8.67520000E-04 pump_irr97
  4 14 22 pump_irr95 5.44601000E-03 pump_irr95
  4 14 22 pump_irr96 4.43853000E-03 pump_irr96
  4 14 22 pump_irr97 2.27015000E-03 pump_irr97
  5 14 22 pump_irr95 3.84141000E-03 pump_irr95
  5 14 22 pump_irr96 3.13077000E-03 pump_irr96
  5 14 22 pump_irr97 1.60128000E-03 pump_irr97
  6 14 22 pump_irr95 8.43100000E-05 pump_irr95
  6 14 22 pump_irr96 6.87200000E-05 pump_irr96
  6 14 22 pump_irr97 3.51500000E-05 pump_irr97
  1 14 23 pump_irr95 2.84013000E-03 pump_irr95
  4 14 23 pump_irr95 7.99362000E-03 pump_irr95
  5 14 23 pump_irr95 5.63840000E-03 pump_irr95
  6 14 23 pump_irr95 7.07180000E-04 pump_irr95
  1 14 24 pump_irr95 3.61563000E-03 pump_irr95
  4 14 24 pump_irr95 8.25830000E-03 pump_irr95
  5 14 24 pump_irr95 4.40511000E-03 pump_irr95
  6 14 24 pump_irr95 9.00270000E-04 pump_irr95
  4 14 25 pump_irr95 6.90481000E-03 pump_irr95
  5 14 25 pump_irr95 3.77631000E-03 pump_irr95
  6 14 25 pump_irr95 7.71760000E-04 pump_irr95
  4 14 26 pump_irr95 1.00539400E-02 pump_irr95
  6 14 26 pump_irr95 1.39894000E-03 pump_irr95
  4 14 27 pump_irr95 5.02697000E-03 pump_irr95
  6 14 27 pump_irr95 6.99470000E-04 pump_irr95
  4 14 28 pump_irr95 1.50809100E-02 pump_irr95
  6 14 28 pump_irr95 2.09841000E-03 pump_irr95
  4 14 29 pump_irr95 1.71793200E-02 pump_irr95
  4 14 30 pump_irr95 1.13227500E-02 pump_irr95
  6 14 30 pump_irr95 1.30130000E-04 pump_irr95
  4 14 31 pump_irr95 5.66363000E-03 pump_irr95
  6 14 31 pump_irr95 6.28100000E-05 pump_irr95
  4 14 32 pump_irr95 5.66252000E-03 pump_irr95
  6 14 32 pump_irr95 6.39200000E-05 pump_irr95
  1 14 33 pump_irr95 1.48339000E-03 pump_irr95
  1 14 33 pump_irr96 1.20897000E-03 pump_irr96
  1 14 33 pump_irr102 7.47280000E-04 pump_irr102
  4 14 33 pump_irr95 9.96949000E-03 pump_irr95
  4 14 33 pump_irr96 8.12519000E-03 pump_irr96
  4 14 33 pump_irr102 5.02224000E-03 pump_irr102
  4 14 34 pump_irr95 1.14528800E-02 pump_irr95
  4 14 34 pump_irr96 9.33416000E-03 pump_irr96
  4 14 34 pump_irr102 5.76952000E-03 pump_irr102
  4 14 35 pump_irr93 5.02513000E-03 pump_irr93
  4 14 35 pump_irr101 5.02513000E-03 pump_irr101
  4 14 35 pump_irr102 5.76952000E-03 pump_irr102
  1 15 8 pump_irr97 9.54819000E-03 pump_irr97
  1 15 8 pump_irr102 5.76952000E-03 pump_irr102
  1 15 9 pump_irr102 1.15390400E-02 pump_irr102
  1 15 10 pump_irr102 1.15390400E-02 pump_irr102
  5 15 11 pump_irr102 1.15390400E-02 pump_irr102
  1 15 12 pump_irr81 5.31577000E-03 pump_irr81
  1 15 12 pump_irr102 3.03628000E-03 pump_irr102
  4 15 12 pump_irr81 2.79639000E-03 pump_irr81
  4 15 12 pump_irr102 1.59725000E-03 pump_irr102
  5 15 12 pump_irr81 1.20898600E-02 pump_irr81
  5 15 12 pump_irr102 6.90551000E-03 pump_irr102
  4 15 13 pump_irr81 5.34408000E-03 pump_irr81
  4 15 13 pump_irr102 1.52622000E-03 pump_irr102
  5 15 13 pump_irr81 1.48579400E-02 pump_irr81
  5 15 13 pump_irr102 4.24330000E-03 pump_irr102
  4 15 16 pump_irr102 1.52622000E-03 pump_irr102
  5 15 16 pump_irr102 4.24330000E-03 pump_irr102
  4 15 17 pump_irr81 2.67204000E-03 pump_irr81
  4 15 17 pump_irr102 1.52622000E-03 pump_irr102
  5 15 17 pump_irr81 7.42897000E-03 pump_irr81
  5 15 17 pump_irr102 4.24330000E-03 pump_irr102
  4 15 18 pump_irr102 1.52622000E-03 pump_irr102
  5 15 18 pump_irr102 4.24330000E-03 pump_irr102
  1 15 19 pump_irr93 1.10626000E-03 pump_irr93
  1 15 19 pump_irr101 1.10626000E-03 pump_irr101
  1 15 19 pump_irr102 1.27013000E-03 pump_irr102
  4 15 19 pump_irr93 1.49738000E-03 pump_irr93
  4 15 19 pump_irr101 1.49738000E-03 pump_irr101
  4 15 19 pump_irr102 1.71919000E-03 pump_irr102
  5 15 19 pump_irr93 2.42149000E-03 pump_irr93
  5 15 19 pump_irr101 2.42149000E-03 pump_irr101
  5 15 19 pump_irr102 2.78019000E-03 pump_irr102
  1 15 20 pump_irr96 2.04059000E-03 pump_irr96
  1 15 20 pump_irr97 2.08738000E-03 pump_irr97
  1 15 20 pump_irr102 2.52261000E-03 pump_irr102
  4 15 20 pump_irr96 2.82691000E-03 pump_irr96
  4 15 20 pump_irr97 2.89173000E-03 pump_irr97
  4 15 20 pump_irr102 3.49468000E-03 pump_irr102
  5 15 20 pump_irr96 4.46665000E-03 pump_irr96
  5 15 20 pump_irr97 4.56907000E-03 pump_irr97
  5 15 20 pump_irr102 5.52175000E-03 pump_irr102
  1 15 21 pump_irr96 3.90741000E-03 pump_irr96
  1 15 21 pump_irr97 1.99850000E-03 pump_irr97
  1 15 21 pump_irr102 2.41520000E-03 pump_irr102
  4 15 21 pump_irr96 6.20800000E-03 pump_irr96
  4 15 21 pump_irr97 3.17517000E-03 pump_irr97
  4 15 21 pump_irr102 3.83721000E-03 pump_irr102
  5 15 21 pump_irr96 8.55292000E-03 pump_irr96
  5 15 21 pump_irr97 4.37452000E-03 pump_irr97
  5 15 21 pump_irr102 5.28663000E-03 pump_irr102
  1 15 22 pump_irr95 1.04057000E-03 pump_irr95
  1 15 22 pump_irr96 6.78456000E-03 pump_irr96
  1 15 22 pump_irr97 8.67520000E-04 pump_irr97
  4 15 22 pump_irr95 2.72301000E-03 pump_irr95
  4 15 22 pump_irr96 1.77541300E-02 pump_irr96
  4 15 22 pump_irr97 2.27015000E-03 pump_irr97
  5 15 22 pump_irr95 1.92071000E-03 pump_irr95
  5 15 22 pump_irr96 1.25231000E-02 pump_irr96
  5 15 22 pump_irr97 1.60128000E-03 pump_irr97
  6 15 22 pump_irr95 4.21600000E-05 pump_irr95
  6 15 22 pump_irr96 2.74860000E-04 pump_irr96
  6 15 22 pump_irr97 3.51500000E-05 pump_irr97
  1 15 23 pump_irr95 1.89342000E-03 pump_irr95
  1 15 23 pump_irr96 3.08630000E-03 pump_irr96
  4 15 23 pump_irr95 5.32908000E-03 pump_irr95
  4 15 23 pump_irr96 8.68646000E-03 pump_irr96
  5 15 23 pump_irr95 3.75893000E-03 pump_irr95
  5 15 23 pump_irr96 6.12710000E-03 pump_irr96
  6 15 23 pump_irr95 4.71450000E-04 pump_irr95
  6 15 23 pump_irr96 7.68470000E-04 pump_irr96
  1 15 24 pump_irr95 4.22689000E-03 pump_irr95
  1 15 24 pump_irr96 1.72247000E-03 pump_irr96
  4 15 24 pump_irr95 1.13727000E-02 pump_irr95
  4 15 24 pump_irr96 4.63441000E-03 pump_irr96
  5 15 24 pump_irr95 6.06638000E-03 pump_irr95
  5 15 24 pump_irr96 2.47207000E-03 pump_irr96
  6 15 24 pump_irr95 1.23979000E-03 pump_irr95
  6 15 24 pump_irr96 5.05220000E-04 pump_irr96
  4 15 25 pump_irr95 2.07144200E-02 pump_irr95
  5 15 25 pump_irr95 1.13289300E-02 pump_irr95
  6 15 25 pump_irr95 2.31529000E-03 pump_irr95
  4 15 26 pump_irr95 2.51348600E-02 pump_irr95
  6 15 26 pump_irr95 3.49734000E-03 pump_irr95
  1 15 27 pump_irr95 5.30881000E-03 pump_irr95
  4 15 27 pump_irr95 6.14407000E-03 pump_irr95
  1 15 28 pump_irr95 4.79690000E-03 pump_irr95
  4 15 28 pump_irr95 6.65598000E-03 pump_irr95
  1 15 29 pump_irr95 1.64632000E-03 pump_irr95
  4 15 29 pump_irr95 9.70436000E-03 pump_irr95
  6 15 29 pump_irr95 1.02200000E-04 pump_irr95
  1 15 30 pump_irr95 1.62616000E-03 pump_irr95
  4 15 30 pump_irr95 9.58554000E-03 pump_irr95
  6 15 30 pump_irr95 2.41180000E-04 pump_irr95
  4 15 31 pump_irr95 9.94687000E-03 pump_irr95
  6 15 31 pump_irr95 1.50601000E-03 pump_irr95
  4 15 32 pump_irr95 9.94687000E-03 pump_irr95
  4 15 32 pump_irr96 8.10676000E-03 pump_irr96
  6 15 32 pump_irr95 1.50601000E-03 pump_irr95
  6 15 32 pump_irr96 1.22741000E-03 pump_irr96
  4 15 33 pump_irr95 9.92359000E-03 pump_irr95
  4 15 33 pump_irr96 8.08778000E-03 pump_irr96
  4 15 33 pump_irr102 9.99824000E-03 pump_irr102
  6 15 33 pump_irr95 1.52929000E-03 pump_irr95
  6 15 33 pump_irr96 1.24638000E-03 pump_irr96
  6 15 33 pump_irr102 1.54080000E-03 pump_irr102
  4 15 34 pump_irr93 8.50767000E-03 pump_irr93
  4 15 34 pump_irr95 4.84751000E-03 pump_irr95
  4 15 34 pump_irr96 7.90150000E-03 pump_irr96
  4 15 34 pump_irr101 8.50767000E-03 pump_irr101
  4 15 34 pump_irr102 9.76795000E-03 pump_irr102
  6 15 34 pump_irr93 1.54258000E-03 pump_irr93
  6 15 34 pump_irr95 8.78930000E-04 pump_irr95
  6 15 34 pump_irr96 1.43267000E-03 pump_irr96
  6 15 34 pump_irr101 1.54258000E-03 pump_irr101
  6 15 34 pump_irr102 1.77109000E-03 pump_irr102
  4 15 35 pump_irr93 1.00502500E-02 pump_irr93
  4 15 35 pump_irr101 1.00502500E-02 pump_irr101
  4 15 35 pump_irr102 5.76952000E-03 pump_irr102
  1 16 7 pump_irr25 4.62717000E-03 pump_irr25
  1 16 7 pump_irr97 2.69505000E-03 pump_irr97
  5 16 7 pump_irr25 3.56955000E-03 pump_irr25
  5 16 7 pump_irr97 2.07904000E-03 pump_irr97
  1 16 8 pump_irr25 9.25435000E-03 pump_irr25
  1 16 8 pump_irr97 2.69505000E-03 pump_irr97
  1 16 8 pump_irr102 3.25698000E-03 pump_irr102
  5 16 8 pump_irr25 7.13909000E-03 pump_irr25
  5 16 8 pump_irr97 2.07904000E-03 pump_irr97
  5 16 8 pump_irr102 2.51254000E-03 pump_irr102
  1 16 9 pump_irr25 9.25435000E-03 pump_irr25
  1 16 9 pump_irr102 3.25698000E-03 pump_irr102
  5 16 9 pump_irr25 7.13909000E-03 pump_irr25
  5 16 9 pump_irr102 2.51254000E-03 pump_irr102
  1 16 10 pump_irr81 5.70217000E-03 pump_irr81
  1 16 10 pump_irr102 6.51396000E-03 pump_irr102
  5 16 10 pump_irr81 4.39884000E-03 pump_irr81
  5 16 10 pump_irr102 5.02507000E-03 pump_irr102