# File generated by Flopy version 3.8.0 on 08/20/2024 at 11:26:02.
BEGIN options
  auxiliary  multiplier
  AUXMULTNAME  multiplier
  BOUNDNAMES
  SAVE_FLOWS
  TS6  FILEIN  mf6-tv_hist-tributary_underflow_rates_ss.ts
  TS6  FILEIN  mf6-tv_hist-tributary_underflow_rates.ts
END options

BEGIN dimensions
  MAXBOUND  81
END dimensions

BEGIN period  1
  1 5 12 trib01ss 1.18050500E+00 trib01
  1 6 14 trib02ss 1.18050500E+00 trib02
  1 7 16 trib03ss 1.18050500E+00 trib03
  1 8 17 trib04ss 1.18050500E+00 trib04
  1 10 19 trib05ss 1.18050500E+00 trib05
  1 10 19 trib06ss 1.51247000E+00 trib06
  1 12 23 trib07ss 1.51247000E+00 trib07
  1 13 25 trib08ss 1.51247000E+00 trib08
  1 13 26 trib09ss 1.51247000E+00 trib09
  1 13 28 trib10ss 1.51247000E+00 trib10
  1 13 34 trib11ss 1.51247000E+00 trib11
  1 14 29 trib12ss 1.51247000E+00 trib12
  1 14 29 trib13ss 1.51247000E+00 trib13
  1 14 30 trib14ss 1.51247000E+00 trib14
  1 14 31 trib15ss 1.51247000E+00 trib15
  1 14 32 trib16ss 1.51247000E+00 trib16
  1 18 37 trib17ss 2.50745000E+00 trib17
  1 18 37 trib18ss 2.50745000E+00 trib18
  1 20 38 trib19ss 2.50745000E+00 trib19
  1 21 38 trib20ss 2.50745000E+00 trib20
  1 24 41 trib21ss 2.51148600E+00 trib21
  1 25 43 trib22ss 2.51148600E+00 trib22
  1 25 43 trib23ss 2.51148600E+00 trib23
  1 26 45 trib24ss 2.51148600E+00 trib24
  1 26 45 trib25ss 2.51148600E+00 trib25
  1 27 45 trib26ss 2.51148600E+00 trib26
  1 29 47 trib27ss 2.01217000E+00 trib27
  1 29 47 trib28ss 2.01217000E+00 trib28
  1 29 47 trib29ss 2.01217000E+00 trib29
  1 30 48 trib30ss 2.01217000E+00 trib30
  1 30 48 trib31ss 2.01217000E+00 trib31
  1 31 48 trib32ss 2.01217000E+00 trib32
  1 32 48 trib33ss 2.01217000E+00 trib33
  1 32 48 trib34ss 2.01217000E+00 trib34
  1 33 49 trib35ss 2.16109100E+00 trib35
  1 34 49 trib36ss 2.16109100E+00 trib36
  1 34 49 trib37ss 2.16109100E+00 trib37
  1 36 51 trib38ss 2.16109100E+00 trib38
  1 38 51 trib39ss 2.16109100E+00 trib39
  1 39 52 trib40ss 2.16109100E+00 trib40
  1 43 57 trib41ss 1.03034100E+00 trib41
  1 44 58 trib42ss 1.03034100E+00 trib42
  1 45 60 trib43ss 1.03034100E+00 trib43
  1 45 60 trib44ss 1.03034100E+00 trib44
  1 46 61 trib45ss 1.02039200E+00 trib45
  1 47 62 trib46ss 1.02039200E+00 trib46
  1 13 34 trib48ss 1.70318000E-01 trib48
  1 14 35 trib48ss 1.70318000E-01 trib48
  1 39 53 trib47ss 7.51129200E-01 trib47
  1 40 53 trib47ss 7.51129200E-01 trib47
  1 41 53 trib47ss 7.51129200E-01 trib47
  1 49 63 trib49ss 2.01185500E-01 trib49
  1 50 64 trib49ss 2.01185500E-01 trib49
  1 51 64 trib49ss 2.01185500E-01 trib49
  1 52 63 trib50ss 0.00000000E+00 trib50
  1 53 62 trib50ss 0.00000000E+00 trib50
  1 54 61 trib50ss 0.00000000E+00 trib50
  1 55 60 trib50ss 0.00000000E+00 trib50
  1 56 58 trib50ss 0.00000000E+00 trib50
  1 56 59 trib50ss 0.00000000E+00 trib50
  1 56 60 trib50ss 0.00000000E+00 trib50
  1 57 55 trib50ss 0.00000000E+00 trib50
  1 57 56 trib50ss 0.00000000E+00 trib50
  1 57 57 trib50ss 0.00000000E+00 trib50
  1 58 47 trib50ss 0.00000000E+00 trib50
  1 58 51 trib50ss 0.00000000E+00 trib50
  1 58 52 trib50ss 0.00000000E+00 trib50
  1 58 53 trib50ss 0.00000000E+00 trib50
  1 58 54 trib50ss 0.00000000E+00 trib50
  1 59 44 trib50ss 0.00000000E+00 trib50
  1 59 45 trib50ss 0.00000000E+00 trib50
  1 59 46 trib50ss 0.00000000E+00 trib50
  1 59 48 trib50ss 0.00000000E+00 trib50
  1 59 49 trib50ss 0.00000000E+00 trib50
  1 59 50 trib50ss 0.00000000E+00 trib50
  1 60 42 trib50ss 0.00000000E+00 trib50
  1 60 43 trib50ss 0.00000000E+00 trib50
  1 61 41 trib50ss 0.00000000E+00 trib50
  1 62 40 trib50ss 0.00000000E+00 trib50
  1 63 39 trib50ss 0.00000000E+00 trib50
  1 64 38 trib50ss 0.00000000E+00 trib50
END period  1

BEGIN period  2
  1 5 12 trib01 1.18050500E+00 trib01
  1 6 14 trib02 1.18050500E+00 trib02
  1 7 16 trib03 1.18050500E+00 trib03
  1 8 17 trib04 1.18050500E+00 trib04
  1 10 19 trib05 1.18050500E+00 trib05
  1 10 19 trib06 1.51247000E+00 trib06
  1 12 23 trib07 1.51247000E+00 trib07
  1 13 25 trib08 1.51247000E+00 trib08
  1 13 26 trib09 1.51247000E+00 trib09
  1 13 28 trib10 1.51247000E+00 trib10
  1 13 34 trib11 1.51247000E+00 trib11
  1 14 29 trib12 1.51247000E+00 trib12
  1 14 29 trib13 1.51247000E+00 trib13
  1 14 30 trib14 1.51247000E+00 trib14
  1 14 31 trib15 1.51247000E+00 trib15
  1 14 32 trib16 1.51247000E+00 trib16
  1 18 37 trib17 2.50745000E+00 trib17
  1 18 37 trib18 2.50745000E+00 trib18
  1 20 38 trib19 2.50745000E+00 trib19
  1 21 38 trib20 2.50745000E+00 trib20
  1 24 41 trib21 2.51148600E+00 trib21
  1 25 43 trib22 2.51148600E+00 trib22
  1 25 43 trib23 2.51148600E+00 trib23
  1 26 45 trib24 2.51148600E+00 trib24
  1 26 45 trib25 2.51148600E+00 trib25
  1 27 45 trib26 2.51148600E+00 trib26
  1 29 47 trib27 2.01217000E+00 trib27
  1 29 47 trib28 2.01217000E+00 trib28
  1 29 47 trib29 2.01217000E+00 trib29
  1 30 48 trib30 2.01217000E+00 trib30
  1 30 48 trib31 2.01217000E+00 trib31
  1 31 48 trib32 2.01217000E+00 trib32
  1 32 48 trib33 2.01217000E+00 trib33
  1 32 48 trib34 2.01217000E+00 trib34
  1 33 49 trib35 2.16109100E+00 trib35
  1 34 49 trib36 2.16109100E+00 trib36
  1 34 49 trib37 2.16109100E+00 trib37
  1 36 51 trib38 2.16109100E+00 trib38
  1 38 51 trib39 2.16109100E+00 trib39
  1 39 52 trib40 2.16109100E+00 trib40
  1 43 57 trib41 1.03034100E+00 trib41
  1 44 58 trib42 1.03034100E+00 trib42
  1 45 60 trib43 1.03034100E+00 trib43
  1 45 60 trib44 1.03034100E+00 trib44
  1 46 61 trib45 1.02039200E+00 trib45
  1 47 62 trib46 1.02039200E+00 trib46
  1 13 34 trib48 1.70318000E-01 trib48
  1 14 35 trib48 1.70318000E-01 trib48
  1 39 53 trib47 7.51129200E-01 trib47
  1 40 53 trib47 7.51129200E-01 trib47
  1 41 53 trib47 7.51129200E-01 trib47
  1 49 63 trib49 2.01185500E-01 trib49
  1 50 64 trib49 2.01185500E-01 trib49
  1 51 64 trib49 2.01185500E-01 trib49
  1 52 63 trib50 0.00000000E+00 trib50
  1 53 62 trib50 0.00000000E+00 trib50
  1 54 61 trib50 0.00000000E+00 trib50
  1 55 60 trib50 0.00000000E+00 trib50
  1 56 58 trib50 0.00000000E+00 trib50
  1 56 59 trib50 0.00000000E+00 trib50
  1 56 60 trib50 0.00000000E+00 trib50
  1 57 55 trib50 0.00000000E+00 trib50
  1 57 56 trib50 0.00000000E+00 trib50
  1 57 57 trib50 0.00000000E+00 trib50
  1 58 47 trib50 0.00000000E+00 trib50
  1 58 51 trib50 0.00000000E+00 trib50
  1 58 52 trib50 0.00000000E+00 trib50
  1 58 53 trib50 0.00000000E+00 trib50
  1 58 54 trib50 0.00000000E+00 trib50
  1 59 44 trib50 0.00000000E+00 trib50
  1 59 45 trib50 0.00000000E+00 trib50
  1 59 46 trib50 0.00000000E+00 trib50
  1 59 48 trib50 0.00000000E+00 trib50
  1 59 49 trib50 0.00000000E+00 trib50
  1 59 50 trib50 0.00000000E+00 trib50
  1 60 42 trib50 0.00000000E+00 trib50
  1 60 43 trib50 0.00000000E+00 trib50
  1 61 41 trib50 0.00000000E+00 trib50
  1 62 40 trib50 0.00000000E+00 trib50
  1 63 39 trib50 0.00000000E+00 trib50
  1 64 38 trib50 0.00000000E+00 trib50
END period  2

