# File generated by Flopy version 3.8.0 on 08/20/2024 at 11:25:49.
BEGIN options
  LENGTH_UNITS  meters
  XORIGIN  2.24701578E+06
  YORIGIN  1.33588488E+06
  ANGROT      -2.00000000
END options

BEGIN dimensions
  NLAY  6
  NROW  64
  NCOL  65
END dimensions

BEGIN griddata
  delr
    INTERNAL  FACTOR  1.0
      1609.34400000    1609.34400000    1609.34400000    1609.34400000    1609.34400000    1609.34400000    1609.34400000    1609.34400000    1609.34400000    1609.34400000    1609.34400000    1609.34400000    1609.34400000    1609.34400000    1609.34400000    1609.34400000    1609.34400000    1609.34400000    1609.34400000    1609.34400000    1609.34400000    1609.34400000    1609.34400000    1609.34400000    1609.34400000    1609.34400000    1609.34400000    1609.34400000    1609.34400000    1609.34400000    1609.34400000    1609.34400000    1609.34400000    1609.34400000    1609.34400000    1609.34400000    1609.34400000    1609.34400000    1609.34400000    1609.34400000    1609.34400000    1609.34400000    1609.34400000    1609.34400000    1609.34400000    1609.34400000    1609.34400000    1609.34400000    1609.34400000    1609.34400000    1609.34400000    1609.34400000    1609.34400000    1609.34400000    1609.34400000    1609.34400000    1609.34400000    1609.34400000    1609.34400000    1609.34400000    1609.34400000    1609.34400000    1609.34400000    1609.34400000    1609.34400000
  delc
    INTERNAL  FACTOR  1.0
      1609.34400000    1609.34400000    1609.34400000    1609.34400000    1609.34400000    1609.34400000    1609.34400000    1609.34400000    1609.34400000    1609.34400000    1609.34400000    1609.34400000    1609.34400000    1609.34400000    1609.34400000    1609.34400000    1609.34400000    1609.34400000    1609.34400000    1609.34400000    1609.34400000    1609.34400000    1609.34400000    1609.34400000    1609.34400000    1609.34400000    1609.34400000    1609.34400000    1609.34400000    1609.34400000    1609.34400000    1609.34400000    1609.34400000    1609.34400000    1609.34400000    1609.34400000    1609.34400000    1609.34400000    1609.34400000    1609.34400000    1609.34400000    1609.34400000    1609.34400000    1609.34400000    1609.34400000    1609.34400000    1609.34400000    1609.34400000    1609.34400000    1609.34400000    1609.34400000    1609.34400000    1609.34400000    1609.34400000    1609.34400000    1609.34400000    1609.34400000    1609.34400000    1609.34400000    1609.34400000    1609.34400000    1609.34400000    1609.34400000    1609.34400000
  top
    INTERNAL  FACTOR  1.0
         0.00000000       0.00000000       0.00000000       0.00000000       0.00000000       0.00000000     711.96102953     667.52058443     650.74821145     652.68924792     668.48654395     711.71361307     771.72889795     830.40254432     842.40024359     829.16418388     859.79792924     845.04317304     763.59882226     729.50713385     736.93165774     759.46144690     781.68047817     807.25522503     847.67649948     853.98925405     887.48916776     907.87774632     906.88145865     991.94078110    1056.82140334    1087.31494500    1135.39862021    1111.06049729    1101.04516402    1180.16630484    1394.59002255    1260.94436624    1113.48853723     955.85354032     912.03020382    1072.45590991    1147.45190160    1214.22315439    1370.69417846    1483.28079722    1455.52361293    1419.98599529    1557.38968562    1227.46603197    1034.91588659    1020.72517719    1227.85136184    1245.73826621    1057.17141356    1031.15926651       0.00000000       0.00000000       0.00000000       0.00000000       0.00000000       0.00000000       0.00000000       0.00000000       0.00000000
         0.00000000       0.00000000       0.00000000       0.00000000       0.00000000       0.00000000     681.22985080     651.04739687     652.48631416     657.25693093     676.99737600     708.01105560     768.94018374     800.40395275     789.01434048     783.61494075     815.70677706     753.65021808     725.25840084     737.42452036     743.18233192     778.29029000     836.17038125     875.47812100     893.04789656     919.96249402     888.72460216     825.35986329     860.85184003     935.96084553    1007.18258152     992.14212267    1043.34449051    1190.55293325    1195.69312078    1170.76530877    1388.41937006    1244.15965108    1096.56297310     958.99890386     931.14534743    1096.53989260    1191.17872706    1195.70507946    1399.95974427    1476.62750174    1399.73705527    1368.84038444    1395.43122533    1005.54537413    1063.50735511    1421.14329594    1323.95347787    1124.90009062    1164.31512910    1480.58693009       0.00000000       0.00000000       0.00000000       0.00000000       0.00000000       0.00000000       0.00000000       0.00000000       0.00000000
         0.00000000       0.00000000       0.00000000       0.00000000       0.00000000       0.00000000     663.29478805     651.91092434     652.77939924     662.00819646     698.16700327     739.64937584     770.70412180     792.84658665     758.90750365     799.91892230     740.86403825     715.99434919     756.54864301     796.91477128     777.61654572     803.75001976     870.42312134     893.58549955     899.67209365     882.24232956     897.00363793     808.40439820     844.82656404     868.43550292     936.19653723     967.91885134    1114.44486331    1237.27346403    1371.96271095    1227.78666352    1405.11273350    1290.97235108    1077.72530421     964.27333732     984.55139688    1177.82641835    1281.61081416    1216.93259312    1319.90125524    1405.91562947    1407.97025470    1372.17188405    1286.57836224     982.81907154    1371.65370739    1708.19309876    1558.01521337    1335.19339215    1450.42371841    1729.43378644       0.00000000       0.00000000       0.00000000       0.00000000       0.00000000       0.00000000       0.00000000       0.00000000       0.00000000
         0.00000000       0.00000000       0.00000000       0.00000000       0.00000000       0.00000000     652.51507774     652.27115392     653.74421154     656.39871039     691.14454873     724.48988762     764.46116207     762.84732067     746.00921055     739.50681834     708.30796553     741.63414061     790.65512265     833.84329945     767.42654182     817.37228262     807.76038627     838.18591928     852.49658152     792.25595400     774.01298038     773.82039598     792.28918206     822.59150571     893.59790219    1011.47610032    1106.07715497    1280.02142566    1546.30733135    1354.94187010    1395.82688223    1207.52715553    1096.83237460     928.61920056    1006.51244318    1173.12155520    1323.40745053    1332.16762488    1301.53755882    1390.10742215    1446.28637167    1400.37887934    1093.69777951    1095.92509774    1480.86422921    1595.38263442    1561.10367706    1496.98306931    1722.13228948    1810.86589294       0.00000000       0.00000000       0.00000000       0.00000000       0.00000000       0.00000000       0.00000000       0.00000000       0.00000000
         0.00000000       0.00000000       0.00000000       0.00000000       0.00000000       0.00000000     655.62034572     653.59061202     659.59154672     658.77888651     658.68842127     672.34897902     724.13311967     733.07291258     696.32832652     709.07532838     743.44377600     776.51224898     803.48142470     744.82984712     746.36066339     731.77818478     747.35206023     751.57646507     745.14010727     764.87780765     784.54047383     779.14952595     800.51960236     834.07857852     913.60654566    1022.32444092    1116.78359667    1271.46446572    1518.36692296    1537.43034255    1424.09788417    1230.83445454    1056.71947315     878.34719583     965.55595327    1069.29073619    1141.72096262    1287.26410327    1256.48003613    1345.32350571    1416.83685282    1409.19624218    1140.23911970    1178.11582247    1479.84816318    1579.20844621    1633.26158611    1600.28433118    1767.39312952    1733.02743658       0.00000000       0.00000000       0.00000000       0.00000000       0.00000000       0.00000000       0.00000000       0.00000000       0.00000000
         0.00000000       0.00000000       0.00000000       0.00000000       0.00000000       0.00000000     664.25026894     655.68813232     655.46440681     668.28781605     667.06463567     661.64290314     662.78166716     669.41125256     719.58159360     757.11055292     779.52208145     783.02283336     737.42827620     710.26269228     729.50296298     748.59966678     750.98458101     755.32900750     781.33340681     813.61859917     828.89766922     817.42449687     857.47036861     848.98260480     889.09704126     996.62543367    1101.20427353    1236.41443137    1461.08639834    1647.57529520    1366.12143711    1157.14755272    1020.09570146     873.64930966     950.89275720     987.45473465    1100.41366206    1187.23159708    1239.59882211    1316.57103694    1363.76342044    1139.59098299    1009.29500014    1371.59619265    1629.16659806    1693.95677665    1758.44770728    1686.48553102    1805.70975845    1761.29480313       0.00000000       0.00000000       0.00000000       0.00000000       0.00000000       0.00000000       0.00000000       0.00000000       0.00000000
         0.00000000       0.00000000       0.00000000       0.00000000       0.00000000       0.00000000     665.00086725     657.79938596     655.27765197     672.87648000     676.41646132     673.04132212     667.34804813     666.35052487     676.18572505     708.04203627     749.91530529     717.80792128     706.98762446     743.03891767     769.94810761     793.80453685     790.07305435     783.64138209     801.85630932     869.36466032     888.86902850     873.77506690     909.62850417     930.02600237     865.65120875     940.18762571    1055.91593656    1247.21913994    1509.44187873    1610.38886204    1303.91589202    1080.56882918     963.11824106     862.01888089     896.24399166     960.07213009    1084.59444868    1156.16193380    1208.79458716    1257.36881557    1089.54176045     972.57778560    1290.31229875    1525.10556193    1475.74374595    1594.44862099    1778.08043334    1879.16790887    1951.56142568    1878.58693131       0.00000000       0.00000000       0.00000000       0.00000000       0.00000000       0.00000000       0.00000000       0.00000000       0.00000000
       669.11884213     669.96993609     673.05442243     672.00010446     672.64407936     666.99738528     663.64900974     659.60606454     655.46519583     679.64562503     680.34942459     678.81922305     676.41550782     672.69402363     671.20061009     670.30958692     673.65952370     695.28682057     747.02408244     782.53004865     785.68863859     821.71304276     835.58821586     818.83111439     834.22583207     878.34283781     867.57825848     892.57284505     945.49457936     896.37253093     863.47051743     931.10659847    1059.35280835    1230.34733454    1499.61187680    1454.35849535    1180.09243432     996.80311483     871.73626648     798.87561057     862.59258741     998.62742270    1101.81105672    1173.05198749    1163.84973866    1159.50628811     888.96917733    1211.30104128    1345.69941864    1294.64772992    1339.56487420    1461.74430866    1739.71603307    2019.46417203    2056.20811449    1754.05952308    1437.84613668    1444.61508379    1368.56988301    1563.38548292    1634.07272027    1665.36727156    1467.46131099    1460.53845514    1561.44582685
       682.95382417     685.20993303     683.55787594     687.04906574     678.60725009     668.82862998     663.50853667     658.26029270     655.90792674     681.15638207     688.39784771     686.53043975     683.50673781     682.09647341     679.60370619     675.60380500     673.43699272     680.58860912     740.87967038     768.54207978     793.43097600     828.28113679     831.58050230     836.12454288     835.95665932     812.08600821     838.95723585     884.90996412     861.05899284     830.56596734     865.29447478     910.91675280    1038.53188949    1203.47009364    1424.84884586    1256.19031597    1089.89310731     943.36319667     829.27512134     784.48523551     856.41365337    1121.58255032    1157.28535539    1131.41632824    1099.54164142     958.50287550     890.27102377    1028.70887767    1057.25496969    1135.34990153    1356.00796554    1626.62380724    1879.97250980    2030.77719792    1914.46649261    1779.67795008    1533.89090303    1535.67937701    1501.62053195    1559.16423339    1515.13951272    1548.54524630    1431.41610105    1431.38523458    1550.73419354
       723.51608351     728.68162279     721.49160292     726.35735075     690.09343756     670.31768506     660.95557209     656.72879917     657.87178560     682.23453899     696.12056618     695.13658876     693.93338360     691.42116651     688.82821604     686.12128571     682.32536476     677.85183130     681.75662756     733.40670354     778.37296881     812.08266167     808.46075829     796.36392142     781.97334914     825.81589649     868.06265804     861.28756920     824.57973982     903.12747472     922.93673320     948.85882699     957.62080945    1111.37734456    1137.12383316    1095.40272834    1042.67474651     919.76287245     805.91861504     781.37006120     874.72664740    1168.96007266    1275.74447318    1215.85683753    1076.79146686    1021.57421596     838.12475449     918.64887811    1026.74487122    1219.52324703    1395.19691750    1555.37565449    1780.99305631    1963.83466074    1749.85796620    1605.73933505    1529.41494429    1512.37379959    1422.84024317    1423.05960543    1515.45735360    1503.09370762    1366.33949562    1378.44889201    1488.50606120
       753.79158138     757.30393382     769.78601377     764.27000250     696.97310622     669.43911232     659.55442182     658.00215522     674.54909781     720.25402956     714.84718583     710.61179041     710.86887364     705.64539548     700.81383586     697.40249729     697.48218256     687.03918862     680.00636414     689.45574792     722.87714421     759.04903967     787.79688934     765.28020585     817.08728372     826.52719681     855.35246644     808.87978624     879.73959805     912.53726263     956.87963404     871.11680974     949.11632883     999.35426269     976.48377790     973.83631772     998.12631322     843.76882420     779.29814187     792.73894748     874.42478752    1069.50815700    1219.03245532    1254.30168760    1250.72623978    1060.43320793     895.32545698     936.22397665    1040.25935234    1179.58277805    1280.49337501    1439.80809100    1620.18953487    1882.51319209    1874.57977302    1580.37243710    1459.52823834    1423.37778090    1346.04551717    1362.72942977    1429.54262838    1411.35537018    1346.91575875    1422.91342901    1579.05420876
       789.50613338     815.69224278     810.11679306     757.59471733     691.22488948     668.34636221     660.65209368     660.02821874     683.96976927     719.59186699     734.90205063     746.48064418     747.46816506     728.35131911     716.77604084     712.48047387     708.11146602     695.71531657     684.54370682     683.48822881     691.29275221     712.86579535     724.43324136     752.75785843     781.77934665     785.47309493     817.42954978     805.30061029     851.63625569     870.82551039     860.33956364     852.73423656     928.01644967     867.03230077     877.68702017     896.81013816     845.06748196     791.92227635     787.19932149     786.60470994     799.15732287     920.43325953    1024.40555354    1230.11010313    1268.05720459    1032.39736572     855.28012417     935.88082503    1130.49366507    1328.69876412    1354.90446343    1502.05969719    1760.87628872    1955.56762040    1816.42429365    1603.83482211    1379.96277123    1339.82576579    1319.94555777    1365.16495639    1387.00479111    1352.05220229    1379.49281613    1492.36307325    1684.76684479
       846.23261969     822.80918971     783.72694834     736.25054047     690.58832334     668.09417012     661.56961920     662.69493148     690.28464167     715.52732629     729.78789809     745.14230497     782.00454981     773.26753185     740.32887903     726.94445212     718.37951541     708.17691477     700.35748312     686.78903842     686.88378036     694.22629986     711.88429861     718.06197289     727.01288265     744.60501424     766.10458354     783.08302341     801.79851917     817.37440223     809.16435803     825.49835616     887.44475341     781.60144459     799.42166644     794.44835018     788.77620855     810.73566470     810.55451296     770.15920446     788.41543477     801.00900063     976.28191678    1101.29464539    1078.03997692     914.15613881     827.47126241     914.99358581    1142.24069969    1299.15252555    1514.02597847    1645.09028429    1908.60141079    1967.34743859    1794.46831116    1588.36625136    1350.91848893    1309.35068965    1313.26318501    1363.99724485    1346.41991541    1313.11144295    1377.69621197    1509.99786556    1716.80145167
       822.81859903     786.17705796     758.03167334     724.80681976     683.60003312     666.96930344     661.00665021     669.08963888     690.14459104     716.03925141     725.02444627     736.08754572     770.00224484     802.50618192     766.07728290     741.28433091     728.35084253     725.61468534     721.31412296     704.60517370     689.42313929     690.60494823     695.78657018     710.48361777     722.92634510     727.52426250     737.55905527     743.80511566     754.29657437     758.32627975     760.97678068     761.61090937     756.07461598     737.78528042     850.27303686     846.43601629     827.05811967     852.35236758     871.52092214     836.03563406     816.23226547     850.69986917     924.60205357     906.00226736     858.03710866     818.80224802     861.59900528    1050.53538924    1174.95380014    1360.35977215    1655.72192713    1804.02393274    1817.51115825    1765.10104070    1728.10072173    1571.65742272    1366.20201527    1309.86416474    1320.47968613    1296.50814228    1308.15493612    1316.63048009    1400.89973316    1520.82506176    1592.05471990
       807.29985454     773.38743402     739.35644296     713.69100104     676.34654010     665.43892654     662.40421710     686.43355160     703.88891129     733.03084927     734.74269340     749.59579479     774.74382780     808.49357669     780.12696859     762.56849385     764.81378304     751.24045398     744.22070580     740.41768092     696.16431164     694.55797641     694.10972128     696.17849292     703.67898491     721.52786087     730.16862822     733.38141932     738.41587519     743.22330365     747.70459395     744.08157000     733.39143382     740.93309698     844.38693130     943.14418625     916.07037587     897.14988743     979.57546352    1036.32105834     930.70733028     983.21450226     991.73290185    1003.63906662     966.77716197     836.63681446     964.98991606    1233.86938728    1288.13759667    1492.32387969    1586.27517913    1550.04156167    1604.22077947    1618.38760029    1602.99052394    1525.68085119    1430.32670898    1365.26676859    1363.59083950    1295.85598419    1282.34388830    1347.19418319    1428.98352467    1540.47171006    1468.12858144
       798.78818444     758.00949149     731.64395412     698.95487409     672.76839527     665.79454682     663.89456662     688.66560751     701.16074484     732.95360848     751.09855645     763.01966762     790.58181162     811.98518847     787.42709687     778.78732383     793.53124790     780.75033649     769.30652468     792.46898569     743.13537141     701.96604976     699.33714866     698.90534057     700.13719278     703.69000195     712.87793299     722.46611478     726.71616760     726.87801987     724.06067224     726.11017068     730.06095130     771.81827863     944.01306972    1042.92481252    1044.67366007    1000.61918721    1134.86846609    1170.17634080    1175.08372019    1174.40223439    1185.99329855    1214.20484343     960.87294811     902.97927652     957.06521489    1151.99122946    1308.71951650    1349.85181646    1325.42454686    1346.66207850    1423.87621730    1479.00823347    1629.49576143    1561.38307905    1494.04342175    1522.17997808    1399.40691036    1285.32760084    1298.26802084    1375.46253162    1475.56625235    1467.69757276    1373.78949941
       772.23959667     744.09723628     730.65320181     692.95115025     669.67601642     664.98348522     672.21779272     691.31489885     708.56055120     743.39019013     752.47269412     758.67012884     785.39997080     814.13319972     800.95009799     789.45365796     783.32108268     778.69371047     777.77104112     787.35442474     800.46226143     776.53565915     727.32299187     706.72769302     705.03921722     704.73634936     707.05198666     710.22510615     713.65624006     717.26562584     721.00461174     723.50118736     736.66105176     838.71215091     943.85821043     990.11083576    1040.61836912    1068.00693186    1165.15839889    1332.83350118    1445.54346259    1335.78573496    1259.14776393    1188.97901642    1065.86717221    1167.31542000    1225.59772977    1066.01276751    1171.73156119    1194.25854242    1309.41084476    1513.41424090    1488.19716930    1623.46018896    1728.43543906    1579.24275183    1640.61705230    1556.26126433    1381.35296368    1296.75146370    1351.66212046    1456.95945704    1494.76606302    1402.30950021    1326.29155952
       750.25777620     731.70744301     712.07912076     683.85283724     669.12055503     665.04076887     678.90348947     693.09082448     715.23355534     749.54253074     771.94016684     779.91530215     776.09059264     807.85074205     801.62426477     790.87291127     785.31571628     772.50368134     765.53396371     783.39173547     805.37314584     799.49643879     820.58590782     793.71499110     742.15282670     722.88385870     707.99066852     711.78145025     715.64132856     718.11440917     722.50427265     729.07471127     779.26521961     880.33589750     972.25760167    1014.00313667     975.58624439    1044.82158027    1168.12807683    1285.50131266    1378.32032618    1368.27475494    1318.57040334    1287.30670216    1151.09139153    1239.24756096    1203.65339708    1136.98978458    1307.46414303    1441.61754995    1510.96911257    1746.99964421    1636.88970449    1700.19346987    1766.11944376    1642.70599570    1560.29538038    1525.61521752    1377.87847826    1297.54281711    1430.24919070    1463.11535216    1448.82236326    1363.98307130    1278.35706825
       736.58863661     730.67860188     712.23270960     683.69914799     668.26939145     668.34587979     685.10117346     704.03801196     726.59262947     753.88521540     786.28459027     806.04746964     806.97701029     814.71588067     811.96691884     796.27145986     777.13852352     766.15445996     761.68057469     785.87518833     793.70545721     792.25206261     815.35646280     826.02828822     823.09848775     795.38068000     756.43422059     717.06672926     715.23265420     717.85918206     733.08772435     771.19780070     890.91739605     959.56474912     981.49139750     932.95509716     938.52892216    1008.94391884    1130.30561502    1314.82689469    1367.98817815    1296.11639124    1319.66258853    1303.64602128    1307.82905489    1245.98162586    1124.75098728    1099.86073885    1281.78327409    1442.60441058    1530.81143334    1667.04028560    1806.58205262    1798.40829567    1769.90200696    1612.44004834    1559.60021667    1410.71041836    1354.32740008    1362.77776279    1514.72288846    1451.17134015    1395.90774705    1277.86961249    1249.59185485
       719.48554185     712.88850366     703.14326822     680.73622631     666.54586547     670.51728142     685.07224898     712.87534167     740.27062247     754.09881724     762.86257552     778.82686832     817.72673630     811.86610636     805.05778730     788.98237234     792.17604814     776.42231233     750.84316481     774.58164343     779.12659778     783.29739695     794.46854776     813.49933018     820.79311054     841.18509132     842.16473238     831.66702822     815.60733500     818.23401140     883.82410906     907.91194769     921.66505378     950.20817513     913.10883923     888.15227500     929.72705546    1042.29177124    1125.42443430    1221.66934632    1270.94718444    1231.61855917    1233.64190108    1294.29453135    1391.91247800    1395.91512642    1182.24646725    1159.84147177    1292.71653148    1388.69095764    1479.35544042    1628.63029671    1773.57477125    1739.70071177    1658.52928446    1552.94868735    1510.80167284    1340.18535068    1320.84312443    1542.18297687    1599.29121502    1435.68158336    1260.95600974    1197.66196539    1228.59012759
       696.80068258     689.45707028     681.61217280     672.73404238     667.22520417     668.79232951     679.96563591     692.30218834     707.20106430     721.14260355     739.68172571     767.80019896     793.90834637     794.74230512     805.28409228     783.68154584     777.26375616     773.17063964     746.22990844     760.21195999     761.01620216     769.45344668     788.70461468     794.55283057     812.11271524     816.50417108     822.88967784     845.29271400     861.70746171     896.90840265     900.86774844     883.23502164     933.40866760     881.94308179     864.88424943     883.07513250     919.81721877     965.78669228    1044.11140369    1131.88921336    1155.34169656    1124.83019855    1121.76545880    1211.45892667    1351.18560668    1461.52172495    1325.18588631    1246.08092160    1405.18493834    1586.39761001    1713.57426797    1738.34528373    1787.40656975    1545.16934067    1541.17152968    1535.90914561    1480.08869865    1251.73747941    1478.95017874    1705.60045405    1603.71971934    1318.50144568    1209.05024479    1290.90539270    1350.02265594
       684.34894902     684.23126066     673.01158083     669.81416766     668.62958233     670.22644629     671.95045143     680.49875542     696.65943895     705.67823783     712.62510063     725.69125679     756.07505258     771.76720904     777.08828840     773.13286494     756.71125947     754.59401754     741.28185787     750.79499416     760.96543745     769.56828151     787.11608131     783.24060458     797.02786162     809.68566846     820.04983781     830.47919541     851.11255186     862.82796718     885.37521349     854.37734194     851.77133121     849.12062274     880.32821391     907.20018706     947.14407728     981.05249479     988.71470462    1051.85400125    1083.78290953    1113.53229197    1056.20409183    1147.28140140    1306.60653649    1410.00564755    1446.65588953    1529.30430345    1328.16790765    1547.88390772    1816.86489681    1979.83586904    1646.43736487    1458.92038292    1390.44470171    1329.70635694    1310.82294353    1222.07497962    1518.18908077    1618.08131759    1416.79383569    1229.56605750    1379.80452621    1533.10885113    1532.93229215
       680.37362834     675.58930598     673.55589246     671.79834919     669.01186162     672.43512283     673.13532685     674.67426992     679.35362293     694.04608571     703.78621940     713.74291042     729.46686127     740.36004608     746.78819082     742.72953684     739.94252346     735.04194493     752.85287684     761.27484279     760.11715332     768.46761055     772.82554185     782.01020473     792.09529068     803.32551739     818.79994054     826.89804988     843.07341451     845.63725768     851.53351628     832.42150883     834.48483256     875.92824359     893.03307519     909.30489587     913.19675867     916.01355355     931.20948146     986.02524643    1040.91320348    1100.03177548    1027.53724837    1126.68690073    1231.33867852    1309.71828989    1434.75282253    1589.25878220    1403.71676329    1584.80712359    1889.93374766    1996.11784334    1738.17749032    1563.48961669    1430.72040126    1325.33856919    1173.60616070    1293.77489407    1566.09777290    1392.00415568    1183.21199500    1282.73341920    1488.67698430    1703.80951650    1703.58703739
       701.27198667     693.82925750     682.29257596     674.45951317     672.57814706     672.34440960     677.72015049     678.34024256     678.55980979     681.50950858     694.61114443     707.58541585     716.78898950     718.94178590     721.37049938     722.30626481     736.74506732     749.25927531     762.72517000     752.77534882     748.05235200     759.57240251     763.72850755     765.39129715     763.60152292     771.52820257     787.30379563     798.93509979     820.42706537     824.90493950     809.22575867     819.32969553     837.68084448     867.48219319     877.41091719     864.65685204     881.69809594     896.75572573     942.82654915     930.00341132     981.35962474    1033.91038667    1007.78663342    1076.90103383    1174.41747969    1237.88726150    1413.15309246    1602.75621652    1464.66969507    1679.73291715    1920.68935745    2068.94676577    1848.75270136    1669.81451771    1485.89353744    1304.01419834    1155.20047255    1304.98501874    1506.02644423    1260.46062965    1285.59854672    1320.91032877    1518.73045251    1666.64534094    1563.48462655