# File generated by Flopy version 3.8.0 on 08/20/2024 at 11:26:09.
BEGIN options
  auxiliary  multiplier
  AUXMULTNAME  multiplier
  BOUNDNAMES
  SAVE_FLOWS
  TS6  FILEIN  mf6-tv_hist-canal_leakage_rates-a-canal_dist.ts
END options

BEGIN dimensions
  MAXBOUND  1656
END dimensions

BEGIN period  1
  1 17 17 leaka05 2.89994200E-04 leaka05
  1 17 18 leaka05 2.84994000E-03 leaka05
  1 18 16 leaka05 2.29995400E-04 leaka05
  1 18 17 leaka05 8.19983600E-04 leaka05
  1 18 18 leaka05 9.39981000E-03 leaka05
  1 18 19 leaka05 1.44797100E-02 leaka05
  1 18 22 leaka05 7.29985000E-03 leaka05
  1 19 17 leaka05 1.83996000E-03 leaka05
  1 19 18 leaka05 2.89994000E-03 leaka05
  1 19 19 leaka05 2.35395300E-02 leaka05
  1 19 20 leaka05 2.48995000E-03 leaka05
  1 19 21 leaka05 1.56997000E-03 leaka05
  1 19 22 leaka05 7.90984000E-03 leaka05
  1 20 8 leaka05 1.49997000E-04 leaka05
  1 20 9 leaka05 5.59988800E-04 leaka05
  1 20 10 leaka05 4.77990000E-03 leaka05
  1 20 11 leaka05 2.09995800E-04 leaka05
  1 20 18 leaka05 2.10996000E-03 leaka05
  1 20 19 leaka05 8.35983000E-03 leaka05
  1 20 20 leaka05 2.47895000E-02 leaka05
  1 20 21 leaka05 2.13996000E-03 leaka05
  1 20 22 leaka05 2.98994000E-03 leaka05
  1 20 23 leaka05 3.94992000E-03 leaka05
  1 21 8 leaka05 3.09993800E-04 leaka05
  1 21 9 leaka05 4.56991000E-03 leaka05
  1 21 10 leaka05 1.26897500E-02 leaka05
  1 21 11 leaka05 3.16793700E-02 leaka05
  1 21 12 leaka05 2.82994000E-03 leaka05
  1 21 17 leaka05 2.49995000E-04 leaka05
  1 21 18 leaka05 8.65983000E-03 leaka05
  1 21 19 leaka05 7.59985000E-03 leaka05
  1 21 20 leaka05 3.46993000E-03 leaka05
  1 21 21 leaka05 1.47997000E-03 leaka05
  1 21 22 leaka05 4.22992000E-03 leaka05
  1 21 23 leaka05 5.63989000E-03 leaka05
  1 22 10 leaka05 8.49983000E-04 leaka05
  1 22 11 leaka05 2.63995000E-03 leaka05
  1 22 12 leaka05 1.07997800E-02 leaka05
  1 22 13 leaka05 3.24994000E-03 leaka05
  1 22 14 leaka05 4.29991400E-04 leaka05
  1 22 16 leaka05 3.89992200E-04 leaka05
  1 22 17 leaka05 4.58991000E-03 leaka05
  1 22 18 leaka05 2.38895200E-02 leaka05
  1 22 19 leaka05 3.43993000E-03 leaka05
  1 22 20 leaka05 1.32997000E-03 leaka05
  1 22 21 leaka05 7.61985000E-03 leaka05
  1 22 22 leaka05 1.61997000E-03 leaka05
  1 22 23 leaka05 6.17988000E-03 leaka05
  1 23 12 leaka05 7.36985000E-03 leaka05
  1 23 13 leaka05 1.58796800E-02 leaka05
  1 23 14 leaka05 2.41095200E-02 leaka05
  1 23 15 leaka05 1.44297100E-02 leaka05
  1 23 16 leaka05 2.08995800E-02 leaka05
  1 23 17 leaka05 1.54896900E-02 leaka05
  1 23 18 leaka05 1.81296400E-02 leaka05
  1 23 19 leaka05 1.32797300E-02 leaka05
  1 23 20 leaka05 1.53396900E-02 leaka05
  1 23 21 leaka05 3.91992000E-03 leaka05
  1 23 22 leaka05 4.33991000E-03 leaka05
  1 23 23 leaka05 1.44997100E-02 leaka05
  1 23 24 leaka05 2.09495800E-02 leaka05
  1 23 25 leaka05 4.12992000E-03 leaka05
  1 23 26 leaka05 7.09985800E-04 leaka05
  1 24 12 leaka05 2.99994000E-04 leaka05
  1 24 13 leaka05 6.54987000E-03 leaka05
  1 24 14 leaka05 9.99980000E-03 leaka05
  1 24 15 leaka05 3.01994000E-03 leaka05
  1 24 16 leaka05 8.71983000E-03 leaka05
  1 24 17 leaka05 7.79984000E-03 leaka05
  1 24 18 leaka05 1.34197300E-02 leaka05
  1 24 19 leaka05 9.67981000E-03 leaka05
  1 24 20 leaka05 6.41987000E-03 leaka05
  1 24 21 leaka05 1.99996000E-05 leaka05
  1 24 22 leaka05 4.00992000E-03 leaka05
  1 24 23 leaka05 6.21988000E-03 leaka05
  1 24 24 leaka05 1.01398000E-02 leaka05
  1 24 25 leaka05 5.98988000E-03 leaka05
  1 24 26 leaka05 1.71496600E-02 leaka05
  1 24 27 leaka05 1.34997000E-03 leaka05
  1 25 15 leaka05 5.29989000E-03 leaka05
  1 25 16 leaka05 5.66288700E-02 leaka05
  1 25 17 leaka05 2.67194700E-02 leaka05
  1 25 18 leaka05 1.09397800E-02 leaka05
  1 25 19 leaka05 1.87496300E-02 leaka05
  1 25 20 leaka05 9.19981600E-04 leaka05
  1 25 21 leaka05 6.79986000E-03 leaka05
  1 25 22 leaka05 6.69986600E-04 leaka05
  1 25 23 leaka05 2.44995000E-03 leaka05
  1 25 24 leaka05 3.85992000E-03 leaka05
  1 25 25 leaka05 4.73991000E-03 leaka05
  1 25 26 leaka05 2.03495900E-02 leaka05
  1 25 27 leaka05 8.43983000E-03 leaka05
  1 25 28 leaka05 1.34997000E-03 leaka05
  1 25 29 leaka05 6.09988000E-03 leaka05
  1 26 16 leaka05 1.54997000E-03 leaka05
  1 26 17 leaka05 9.09982000E-03 leaka05
  1 26 18 leaka05 1.39497200E-02 leaka05
  1 26 19 leaka05 1.32997300E-02 leaka05
  1 26 20 leaka05 7.11986000E-03 leaka05
  1 26 21 leaka05 9.63981000E-03 leaka05
  1 26 23 leaka05 2.39995000E-03 leaka05
  1 26 24 leaka05 6.36987000E-03 leaka05
  1 26 25 leaka05 1.23397500E-02 leaka05
  1 26 26 leaka05 1.34797300E-02 leaka05
  1 26 27 leaka05 6.16988000E-03 leaka05
  1 26 28 leaka05 2.51395000E-02 leaka05
  1 26 29 leaka05 2.20996000E-03 leaka05
  1 27 17 leaka05 9.29981400E-04 leaka05
  1 27 18 leaka05 1.54997000E-03 leaka05
  1 27 19 leaka05 5.45989000E-03 leaka05
  1 27 20 leaka05 1.16697700E-02 leaka05
  1 27 21 leaka05 3.43993000E-03 leaka05
  1 27 22 leaka05 5.69988600E-04 leaka05
  1 27 23 leaka05 7.01986000E-03 leaka05
  1 27 24 leaka05 2.88994000E-03 leaka05
  1 27 25 leaka05 1.11297800E-02 leaka05
  1 27 26 leaka05 2.11595800E-02 leaka05
  1 27 27 leaka05 1.35397300E-02 leaka05
  1 27 28 leaka05 5.73989000E-03 leaka05
  1 28 18 leaka05 1.99996000E-05 leaka05
  1 28 19 leaka05 1.51997000E-03 leaka05
  1 28 20 leaka05 6.54987000E-03 leaka05
  1 28 21 leaka05 1.09097800E-02 leaka05
  1 28 22 leaka05 3.44993000E-03 leaka05
  1 28 23 leaka05 3.73993000E-03 leaka05
  1 28 24 leaka05 1.99996000E-04 leaka05
  1 28 25 leaka05 1.19997600E-04 leaka05
  1 29 20 leaka05 6.89986200E-04 leaka05
  1 29 21 leaka05 5.92988000E-03 leaka05
  1 29 22 leaka05 4.03992000E-03 leaka05
  1 30 22 leaka05 5.89988200E-04 leaka05
  1 17 8 leaka25 4.01012000E-03 leaka25
  1 17 9 leaka25 4.18512600E-02 leaka25
  1 18 8 leaka25 5.84417500E-02 leaka25
  1 18 9 leaka25 2.97508900E-02 leaka25
  1 19 8 leaka25 1.54504600E-02 leaka25
  1 20 6 leaka25 1.36004000E-03 leaka25
  1 20 8 leaka25 8.52026000E-03 leaka25
  1 21 6 leaka25 1.92006000E-03 leaka25
  1 21 7 leaka25 6.90020701E-04 leaka25
  1 21 8 leaka25 4.90014700E-04 leaka25
  1 21 9 leaka25 5.97317900E-02 leaka25
  1 21 10 leaka25 1.12003000E-03 leaka25
  1 22 8 leaka25 2.63008000E-03 leaka25
  1 22 10 leaka25 3.27409800E-02 leaka25
  1 22 11 leaka25 5.34016000E-03 leaka25
  1 22 12 leaka25 7.50022501E-04 leaka25
  1 23 8 leaka25 4.90014700E-04 leaka25
  1 23 9 leaka25 4.40013200E-04 leaka25
  1 23 11 leaka25 9.59029000E-03 leaka25
  1 23 12 leaka25 2.77408300E-02 leaka25
  1 24 9 leaka25 3.20009600E-04 leaka25
  1 24 10 leaka25 4.97015000E-03 leaka25
  1 24 11 leaka25 1.22004000E-03 leaka25
  1 24 12 leaka25 4.57213700E-02 leaka25
  1 24 13 leaka25 1.11603300E-02 leaka25
  1 24 14 leaka25 1.17803500E-02 leaka25
  1 24 15 leaka25 9.31028000E-03 leaka25
  1 24 16 leaka25 1.28004000E-03 leaka25
  1 25 10 leaka25 1.51004500E-02 leaka25
  1 25 11 leaka25 7.07421200E-02 leaka25
  1 25 12 leaka25 5.00715000E-02 leaka25
  1 25 13 leaka25 6.32819000E-02 leaka25
  1 25 14 leaka25 6.95021000E-03 leaka25
  1 25 15 leaka25 5.39116200E-02 leaka25
  1 25 16 leaka25 6.01018000E-03 leaka25
  1 26 11 leaka25 1.89006000E-03 leaka25
  1 26 12 leaka25 9.12527400E-02 leaka25
  1 26 13 leaka25 1.92605800E-02 leaka25
  1 26 14 leaka25 1.38104100E-02 leaka25
  1 26 15 leaka25 7.00021001E-04 leaka25
  1 26 16 leaka25 4.60213800E-02 leaka25
  1 26 17 leaka25 9.73029000E-03 leaka25
  1 27 14 leaka25 5.40016000E-03 leaka25
  1 27 16 leaka25 3.58011000E-03 leaka25
  1 27 17 leaka25 6.69220100E-02 leaka25
  1 27 18 leaka25 3.68411100E-02 leaka25
  1 28 17 leaka25 1.10003000E-03 leaka25
  1 28 18 leaka25 2.71208100E-02 leaka25
  1 28 19 leaka25 1.59004800E-02 leaka25
  1 28 20 leaka25 7.30021901E-04 leaka25
  1 29 19 leaka25 1.67005000E-03 leaka25
  1 29 20 leaka25 2.86009000E-03 leaka25
  1 29 21 leaka25 3.20009600E-04 leaka25
  1 26 33 leaka26 2.69058700E-02 leaka26
  1 26 34 leaka26 1.13926700E-02 leaka26
  1 26 35 leaka26 2.04088900E-02 leaka26
  1 26 36 leaka26 3.31580700E-02 leaka26
  1 26 37 leaka26 3.62077000E-03 leaka26
  1 27 29 leaka26 1.12192780E-04 leaka26
  1 27 30 leaka26 7.03755000E-03 leaka26
  1 27 31 leaka26 8.64292400E-02 leaka26
  1 27 32 leaka26 3.83087300E-02 leaka26
  1 27 33 leaka26 4.97116000E-02 leaka26
  1 27 34 leaka26 8.39406000E-03 leaka26
  1 27 35 leaka26 6.46638000E-03 leaka26
  1 27 36 leaka26 4.00834000E-03 leaka26
  1 27 37 leaka26 1.21114780E-01 leaka26
  1 27 38 leaka26 1.21114780E-01 leaka26
  1 27 39 leaka26 1.02982770E-01 leaka26
  1 27 40 leaka26 2.08168600E-02 leaka26
  1 28 29 leaka26 6.83356023E-04 leaka26
  1 28 32 leaka26 9.89336331E-04 leaka26
  1 28 33 leaka26 8.15947490E-04 leaka26
  1 28 36 leaka26 9.38339613E-04 leaka26
  1 28 37 leaka26 5.76263000E-03 leaka26
  1 28 38 leaka26 2.14900200E-02 leaka26
  1 28 39 leaka26 8.61845000E-03 leaka26
  1 28 40 leaka26 2.88335400E-02 leaka26
  1 29 38 leaka26 1.68289000E-03 leaka26
  1 29 39 leaka26 1.07093000E-03 leaka26
  1 29 40 leaka26 1.31775500E-02 leaka26
  1 29 41 leaka26 3.58099000E-02 leaka26
  1 29 42 leaka26 9.39360000E-03 leaka26
  1 30 41 leaka26 2.32443000E-02 leaka26
  1 30 42 leaka26 1.01687460E-01 leaka26
  1 30 43 leaka26 2.89457400E-02 leaka26
  1 31 41 leaka26 9.07741582E-04 leaka26
  1 31 42 leaka26 1.64209000E-03 leaka26
  1 31 43 leaka26 1.25044000E-02 leaka26
  1 31 44 leaka26 7.99629000E-03 leaka26
  1 32 43 leaka26 1.63189498E-04 leaka26
  1 32 44 leaka26 2.95169000E-02 leaka26
  1 33 44 leaka26 2.14186000E-03 leaka26
  1 29 23 leaka53 2.16000000E-03 leaka53
  1 29 24 leaka53 1.22000000E-03 leaka53
  1 29 25 leaka53 1.44000000E-03 leaka53
  1 29 26 leaka53 2.14000000E-03 leaka53
  1 30 23 leaka53 1.48700000E-02 leaka53
  1 30 24 leaka53 3.02700000E-02 leaka53
  1 30 25 leaka53 2.37600000E-02 leaka53
  1 30 26 leaka53 4.12600000E-02 leaka53
  1 30 27 leaka53 2.32600000E-02 leaka53
  1 30 28 leaka53 2.60000000E-03 leaka53
  1 30 29 leaka53 2.45000000E-03 leaka53
  1 30 30 leaka53 2.63000000E-03 leaka53
  1 31 16 leaka53 7.50000000E-04 leaka53
  1 31 22 leaka53 1.40000000E-04 leaka53
  1 31 23 leaka53 2.11000000E-03 leaka53
  1 31 24 leaka53 4.54000000E-03 leaka53
  1 31 25 leaka53 1.53300000E-02 leaka53
  1 31 26 leaka53 3.28300000E-02 leaka53
  1 31 27 leaka53 5.58800000E-02 leaka53
  1 31 28 leaka53 4.52900000E-02 leaka53
  1 31 29 leaka53 4.19600000E-02 leaka53
  1 31 30 leaka53 3.80700000E-02 leaka53
  1 31 31 leaka53 1.57500000E-02 leaka53
  1 31 32 leaka53 2.30000000E-04 leaka53
  1 32 16 leaka53 4.10000000E-04 leaka53
  1 32 17 leaka53 2.80000000E-03 leaka53
  1 32 18 leaka53 6.99000000E-03 leaka53
  1 32 19 leaka53 1.90000000E-04 leaka53
  1 32 23 leaka53 2.54000000E-03 leaka53
  1 32 24 leaka53 1.91100000E-02 leaka53
  1 32 25 leaka53 1.23100000E-02 leaka53
  1 32 26 leaka53 3.58300000E-02 leaka53
  1 32 27 leaka53 3.63700000E-02 leaka53
  1 32 28 leaka53 2.43400000E-02 leaka53
  1 32 29 leaka53 3.02000000E-02 leaka53
  1 32 30 leaka53 2.82700000E-02 leaka53
  1 32 31 leaka53 2.48700000E-02 leaka53
  1 33 18 leaka53 4.70000000E-04 leaka53
  1 33 19 leaka53 1.40000000E-03 leaka53
  1 33 20 leaka53 1.74000000E-03 leaka53
  1 33 21 leaka53 5.05000000E-03 leaka53
  1 33 22 leaka53 5.10000000E-03 leaka53
  1 33 23 leaka53 4.13000000E-03 leaka53
  1 33 24 leaka53 7.81000000E-03 leaka53
  1 33 25 leaka53 4.03000000E-02 leaka53
  1 33 26 leaka53 1.21000000E-02 leaka53
  1 33 27 leaka53 2.68100000E-02 leaka53
  1 33 28 leaka53 3.60500000E-02 leaka53
  1 33 29 leaka53 7.67000000E-03 leaka53
  1 33 30 leaka53 2.61400000E-02 leaka53
  1 33 31 leaka53 7.60000000E-03 leaka53
  1 34 21 leaka53 4.40000000E-04 leaka53
  1 34 22 leaka53 7.10000000E-04 leaka53
  1 34 23 leaka53 1.85000000E-03 leaka53
  1 34 24 leaka53 2.16100000E-02 leaka53
  1 34 25 leaka53 1.25300000E-02 leaka53
  1 34 26 leaka53 5.62000000E-03 leaka53
  1 34 27 leaka53 1.76700000E-02 leaka53
  1 34 28 leaka53 1.75000000E-02 leaka53
  1 34 29 leaka53 2.02700000E-02 leaka53
  1 34 30 leaka53 1.74400000E-02 leaka53
  1 34 31 leaka53 4.90000000E-03 leaka53
  1 35 22 leaka53 2.00000000E-04 leaka53
  1 35 23 leaka53 4.97000000E-03 leaka53
  1 35 24 leaka53 6.12000000E-03 leaka53
  1 35 25 leaka53 4.36000000E-03 leaka53
  1 35 26 leaka53 4.00000000E-03 leaka53
  1 35 27 leaka53 3.83000000E-03 leaka53
  1 35 28 leaka53 1.88000000E-03 leaka53
  1 35 29 leaka53 7.63000000E-03 leaka53
  1 35 30 leaka53 4.59000000E-03 leaka53
  1 35 31 leaka53 4.50000000E-04 leaka53
  1 36 23 leaka53 1.50000000E-04 leaka53
  1 36 24 leaka53 1.10000000E-03 leaka53
  1 36 25 leaka53 5.29000000E-03 leaka53
  1 36 26 leaka53 3.02000000E-03 leaka53
  1 36 27 leaka53 2.71000000E-03 leaka53
  1 36 28 leaka53 3.08000000E-03 leaka53
  1 36 29 leaka53 1.60000000E-03 leaka53
  1 37 24 leaka53 5.90000000E-04 leaka53
  1 37 25 leaka53 8.76000000E-03 leaka53
  1 37 26 leaka53 6.84000000E-03 leaka53
  1 37 27 leaka53 7.10000000E-04 leaka53
  1 37 28 leaka53 4.00000000E-05 leaka53
  1 30 36 leaka59 8.19272610E-04 leaka59
  1 31 32 leaka59 1.05780000E-03 leaka59
  1 31 33 leaka59 2.30122300E-02 leaka59
  1 31 34 leaka59 3.11116000E-03 leaka59
  1 31 35 leaka59 2.02536600E-02 leaka59
  1 31 36 leaka59 2.77100800E-02 leaka59
  1 31 37 leaka59 3.81947000E-02 leaka59
  1 31 38 leaka59 2.75337800E-02 leaka59
  1 31 39 leaka59 4.10673000E-03 leaka59
  1 31 40 leaka59 2.69634024E-04 leaka59
  1 31 41 leaka59 2.31263000E-03 leaka59
  1 32 32 leaka59 1.22165000E-02 leaka59
  1 32 33 leaka59 6.28558400E-02 leaka59
  1 32 34 leaka59 1.23150160E-01 leaka59
  1 32 35 leaka59 6.76677700E-02 leaka59
  1 32 36 leaka59 1.98906900E-02 leaka59
  1 32 37 leaka59 3.17338500E-02 leaka59
  1 32 38 leaka59 9.80845600E-02 leaka59
  1 32 39 leaka59 4.84200500E-02 leaka59
  1 32 40 leaka59 2.21618400E-02 leaka59
  1 32 41 leaka59 2.76893000E-03 leaka59
  1 33 32 leaka59 1.21335300E-02 leaka59
  1 33 33 leaka59 2.98256700E-02 leaka59
  1 33 34 leaka59 1.27558000E-03 leaka59
  1 33 35 leaka59 1.81173300E-02 leaka59
  1 33 36 leaka59 1.43735700E-02 leaka59
  1 33 37 leaka59 1.19364900E-02 leaka59
  1 33 38 leaka59 1.48609800E-02 leaka59
  1 33 39 leaka59 8.35346900E-02 leaka59
  1 33 40 leaka59 6.78129600E-02 leaka59
  1 33 41 leaka59 7.88160992E-04 leaka59
  1 34 33 leaka59 9.35423000E-03 leaka59
  1 34 34 leaka59 1.61054500E-02 leaka59
  1 34 35 leaka59 3.24598000E-03 leaka59
  1 34 36 leaka59 2.69322900E-02 leaka59
  1 34 37 leaka59 5.80750000E-03 leaka59
  1 34 38 leaka59 6.70974000E-03 leaka59
  1 34 39 leaka59 1.83558500E-02 leaka59
  1 34 40 leaka59 1.63439700E-02 leaka59
  1 35 39 leaka59 5.15416000E-03 leaka59
  1 43 18 leaka64 3.36245000E-03 leaka64
  1 43 19 leaka64 1.12569000E-02 leaka64
  1 43 20 leaka64 6.74739124E-04 leaka64
  1 44 18 leaka64 1.91176000E-03 leaka64
  1 44 19 leaka64 1.13659810E-01 leaka64
  1 44 20 leaka64 1.20320110E-01 leaka64
  1 44 21 leaka64 1.56876800E-02 leaka64
  1 45 19 leaka64 9.14272000E-03 leaka64
  1 45 20 leaka64 7.61668000E-02 leaka64
  1 45 21 leaka64 5.70829300E-02 leaka64
  1 45 23 leaka64 1.03235100E-02 leaka64
  1 45 24 leaka64 1.12119200E-02 leaka64
  1 46 19 leaka64 2.96885000E-03 leaka64
  1 46 21 leaka64 1.07171100E-02 leaka64
  1 46 24 leaka64 1.00367440E-01 leaka64
  1 46 25 leaka64 1.12456521E-05 leaka64
  1 47 21 leaka64 3.30622200E-02 leaka64
  1 47 24 leaka64 6.61356800E-02 leaka64
  1 47 25 leaka64 2.77767600E-02 leaka64
  1 47 26 leaka64 3.59861000E-03 leaka64
  1 48 21 leaka64 3.93597822E-04 leaka64
  1 48 22 leaka64 1.19878700E-02 leaka64
  1 48 23 leaka64 2.94298700E-02 leaka64
  1 48 24 leaka64 9.62628000E-03 leaka64
  1 49 22 leaka64 9.95240000E-03 leaka64
  1 49 23 leaka64 3.24999000E-03 leaka64
  1 49 24 leaka64 1.05484200E-02 leaka64
  1 50 23 leaka64 5.60033000E-03 leaka64
  1 50 24 leaka64 3.30172300E-02 leaka64
  1 50 28 leaka64 3.93597822E-04 leaka64
  1 51 24 leaka64 3.18027000E-02 leaka64
  1 51 25 leaka64 4.56236100E-02 leaka64
  1 51 26 leaka64 7.23770200E-02 leaka64
  1 51 27 leaka64 6.23009000E-03 leaka64
  1 51 28 leaka64 7.08476080E-04 leaka64
  1 52 25 leaka64 1.40571000E-03 leaka64
  1 52 26 leaka64 2.58200200E-02 leaka64
  1 53 26 leaka64 5.74653000E-03 leaka64
  1 53 27 leaka64 1.50804200E-02 leaka64
  1 53 28 leaka64 1.31574000E-03 leaka64
  1 57 31 leaka64 4.13840000E-03 leaka64
  1 57 32 leaka64 1.12456521E-04 leaka64
  1 30 38 leaka68 5.62962400E-02 leaka68
  1 30 39 leaka68 4.15355100E-02 leaka68
  1 30 40 leaka68 4.68949279E-04 leaka68
  1 31 38 leaka68 7.30221000E-03 leaka68
  1 31 39 leaka68 1.24293720E-01 leaka68
  1 31 40 leaka68 1.24293720E-01 leaka68
  1 31 41 leaka68 1.24293720E-01 leaka68
  1 31 42 leaka68 2.02318100E-02 leaka68
  1 32 42 leaka68 9.28966200E-02 leaka68
  1 32 43 leaka68 9.79210800E-02 leaka68
  1 33 43 leaka68 4.87260600E-02 leaka68
  1 33 44 leaka68 1.24293720E-01 leaka68
  1 33 45 leaka68 4.91280197E-04 leaka68
  1 34 44 leaka68 1.24293720E-01 leaka68
  1 34 45 leaka68 1.26616300E-02 leaka68
  1 50 23 leaka71 1.25000000E-01 leaka71
  1 50 24 leaka71 1.25000000E-01 leaka71
  1 51 26 leaka71 1.25000000E-01 leaka71
  1 52 26 leaka71 1.25000000E-01 leaka71
  1 52 28 leaka71 1.25000000E-01 leaka71
  1 53 26 leaka71 1.25000000E-01 leaka71
  1 53 27 leaka71 1.25000000E-01 leaka71
  1 53 28 leaka71 1.25000000E-01 leaka71
  1 31 31 leaka75 1.22005000E-03 leaka75
  1 31 32 leaka75 7.50030001E-04 leaka75
  1 31 33 leaka75 5.00020001E-05 leaka75
  1 31 41 leaka75 2.00008000E-05 leaka75
  1 32 31 leaka75 9.50038002E-04 leaka75
  1 32 32 leaka75 1.52006000E-03 leaka75
  1 32 33 leaka75 1.81007000E-03 leaka75
  1 32 34 leaka75 1.70006800E-04 leaka75
  1 32 41 leaka75 4.96020000E-03 leaka75
  1 32 42 leaka75 1.26005000E-03 leaka75
  1 32 43 leaka75 5.40021601E-04 leaka75
  1 33 31 leaka75 1.93507700E-02 leaka75
  1 33 32 leaka75 1.18604700E-02 leaka75
  1 33 33 leaka75 1.07504300E-02 leaka75
  1 33 34 leaka75 2.23009000E-03 leaka75
  1 33 35 leaka75 6.00024001E-04 leaka75
  1 33 36 leaka75 1.16005000E-03 leaka75
  1 33 37 leaka75 2.27009000E-03 leaka75
  1 33 38 leaka75 3.73015000E-03 leaka75
  1 33 39 leaka75 1.33005000E-03 leaka75
  1 33 40 leaka75 9.63039000E-03 leaka75
  1 33 41 leaka75 6.42026000E-03 leaka75
  1 33 42 leaka75 5.32021000E-03 leaka75
  1 33 43 leaka75 2.63011000E-03 leaka75
  1 33 44 leaka75 7.00028001E-05 leaka75
  1 34 30 leaka75 2.40009600E-04 leaka75
  1 34 31 leaka75 5.01820100E-02 leaka75
  1 34 32 leaka75 2.54910200E-02 leaka75
  1 34 33 leaka75 5.27921100E-02 leaka75
  1 34 34 leaka75 5.24021000E-03 leaka75
  1 34 35 leaka75 8.43034000E-03 leaka75
  1 34 36 leaka75 4.34017000E-03 leaka75
  1 34 37 leaka75 4.91020000E-03 leaka75
  1 34 38 leaka75 2.67011000E-03 leaka75
  1 34 39 leaka75 3.79015000E-03 leaka75
  1 34 40 leaka75 1.10304400E-02 leaka75
  1 34 41 leaka75 4.47018000E-03 leaka75
  1 34 42 leaka75 4.25017000E-03 leaka75
  1 34 43 leaka75 4.88020000E-03 leaka75
  1 34 44 leaka75 1.19604800E-02 leaka75
  1 34 45 leaka75 5.30021201E-04 leaka75
  1 35 30 leaka75 2.30009200E-04 leaka75
  1 35 31 leaka75 2.68011000E-03 leaka75
  1 35 32 leaka75 4.20916800E-02 leaka75
  1 35 33 leaka75 5.97223900E-02 leaka75
  1 35 34 leaka75 1.91007600E-02 leaka75
  1 35 35 leaka75 1.05904200E-02 leaka75
  1 35 36 leaka75 8.85035000E-03 leaka75
  1 35 37 leaka75 5.64023000E-03 leaka75
  1 35 38 leaka75 6.10024401E-04 leaka75
  1 35 39 leaka75 5.48022000E-03 leaka75
  1 35 40 leaka75 6.52026000E-03 leaka75
  1 35 41 leaka75 3.42014000E-03 leaka75
  1 35 42 leaka75 3.37013000E-03 leaka75
  1 35 43 leaka75 4.72019000E-03 leaka75
  1 35 44 leaka75 8.76035000E-03 leaka75
  1 35 45 leaka75 9.89040000E-03 leaka75
  1 35 46 leaka75 1.80007200E-04 leaka75
  1 36 27 leaka75 1.10004400E-04 leaka75
  1 36 28 leaka75 1.20004800E-04 leaka75
  1 36 29 leaka75 7.20028801E-04 leaka75
  1 36 30 leaka75 1.29705200E-02 leaka75
  1 36 31 leaka75 2.16808700E-02 leaka75
  1 36 32 leaka75 3.98715900E-02 leaka75
  1 36 33 leaka75 2.87111500E-02 leaka75
  1 36 34 leaka75 2.20608800E-02 leaka75
  1 36 35 leaka75 1.71906900E-02 leaka75
  1 36 36 leaka75 2.04608200E-02 leaka75
  1 36 37 leaka75 7.90032000E-03 leaka75
  1 36 38 leaka75 6.20024801E-04 leaka75
  1 36 39 leaka75 1.70006800E-04 leaka75
  1 36 40 leaka75 2.10008400E-04 leaka75
  1 36 44 leaka75 1.33005000E-03 leaka75
  1 36 45 leaka75 1.42006000E-03 leaka75
  1 36 46 leaka75 2.51010000E-03 leaka75
  1 36 47 leaka75 3.00012000E-04 leaka75
  1 37 24 leaka75 1.81007000E-03 leaka75
  1 37 25 leaka75 2.27009000E-03 leaka75
  1 37 26 leaka75 1.20304800E-02 leaka75
  1 37 27 leaka75 1.91008000E-03 leaka75
  1 37 28 leaka75 9.10036401E-04 leaka75
  1 37 29 leaka75 6.10024401E-04 leaka75
  1 37 30 leaka75 4.60018401E-04 leaka75
  1 37 31 leaka75 6.06024000E-03 leaka75
  1 37 32 leaka75 2.34709400E-02 leaka75
  1 37 33 leaka75 2.28009000E-03 leaka75
  1 37 35 leaka75 4.40017601E-04 leaka75
  1 37 36 leaka75 2.16508700E-02 leaka75
  1 37 37 leaka75 9.74039000E-03 leaka75
  1 37 38 leaka75 7.66031000E-03 leaka75
  1 37 39 leaka75 1.20005000E-03 leaka75
  1 37 40 leaka75 2.60010400E-04 leaka75
  1 37 46 leaka75 7.00028001E-05 leaka75
  1 37 47 leaka75 2.44010000E-03 leaka75
  1 37 48 leaka75 2.79011000E-03 leaka75
  1 37 49 leaka75 2.32009000E-03 leaka75
  1 38 24 leaka75 2.51010000E-03 leaka75
  1 38 25 leaka75 4.07016000E-03 leaka75
  1 38 26 leaka75 1.23504900E-02 leaka75
  1 38 27 leaka75 7.99032000E-03 leaka75
  1 38 28 leaka75 1.20004800E-04 leaka75
  1 38 29 leaka75 3.22013000E-03 leaka75
  1 38 30 leaka75 2.07008000E-03 leaka75
  1 38 31 leaka75 1.36505500E-02 leaka75
  1 38 32 leaka75 1.72306900E-02 leaka75
  1 38 33 leaka75 1.73007000E-03 leaka75
  1 38 37 leaka75 4.30017201E-04 leaka75
  1 38 38 leaka75 5.35021000E-03 leaka75
  1 38 49 leaka75 7.60030401E-04 leaka75
  1 38 50 leaka75 3.50014001E-04 leaka75
  1 39 26 leaka75 8.61034000E-03 leaka75
  1 39 27 leaka75 1.56706300E-02 leaka75
  1 39 28 leaka75 5.64023000E-03 leaka75
  1 39 29 leaka75 4.26017000E-03 leaka75
  1 39 30 leaka75 5.44022000E-03 leaka75
  1 39 31 leaka75 3.06012000E-03 leaka75
  1 39 32 leaka75 2.29409200E-02 leaka75
  1 39 33 leaka75 3.41014000E-03 leaka75
  1 40 26 leaka75 8.00032001E-05 leaka75
  1 40 27 leaka75 1.88207500E-02 leaka75
  1 40 28 leaka75 1.67606700E-02 leaka75
  1 40 29 leaka75 6.86027000E-03 leaka75
  1 40 30 leaka75 1.88507500E-02 leaka75
  1 40 31 leaka75 1.15904600E-02 leaka75
  1 40 32 leaka75 1.42505700E-02 leaka75
  1 40 33 leaka75 2.00008000E-05 leaka75
  1 41 28 leaka75 2.04008000E-03 leaka75
  1 41 29 leaka75 1.15004600E-02 leaka75
  1 41 30 leaka75 4.50018001E-04 leaka75
  1 41 31 leaka75 1.50006000E-03 leaka75
  1 38 24 leaka77 3.31010000E-03 leaka77
  1 38 25 leaka77 7.06021000E-03 leaka77
  1 38 26 leaka77 4.00012000E-05 leaka77
  1 39 24 leaka77 1.70005000E-03 leaka77
  1 39 25 leaka77 3.48010000E-03 leaka77
  1 39 26 leaka77 1.29603900E-02 leaka77
  1 40 23 leaka77 4.10012300E-04 leaka77
  1 40 24 leaka77 7.00021001E-04 leaka77
  1 40 26 leaka77 0.00000000E+00 leaka77
  1 40 27 leaka77 4.81014000E-03 leaka77
  1 40 28 leaka77 1.20003600E-04 leaka77
  1 40 32 leaka77 4.70014100E-04 leaka77
  1 40 33 leaka77 4.30012900E-04 leaka77
  1 41 23 leaka77 2.26007000E-03 leaka77
  1 41 24 leaka77 1.11903400E-02 leaka77
  1 41 25 leaka77 2.82008000E-03 leaka77
  1 41 27 leaka77 2.84009000E-03 leaka77
  1 41 28 leaka77 2.46207400E-02 leaka77
  1 41 29 leaka77 1.89605700E-02 leaka77
  1 41 30 leaka77 1.38004100E-02 leaka77
  1 41 31 leaka77 3.84012000E-03 leaka77
  1 41 32 leaka77 9.34028000E-03 leaka77
  1 41 33 leaka77 1.72305200E-02 leaka77
  1 41 34 leaka77 4.80014400E-04 leaka77
  1 42 24 leaka77 1.70005000E-03 leaka77
  1 42 25 leaka77 7.46022000E-03 leaka77
  1 42 26 leaka77 9.14027000E-03 leaka77
  1 42 27 leaka77 4.39013000E-03 leaka77
  1 42 28 leaka77 1.45204400E-02 leaka77
  1 42 29 leaka77 8.55026000E-03 leaka77
  1 42 30 leaka77 1.91905800E-02 leaka77
  1 42 31 leaka77 1.52504600E-02 leaka77
  1 42 32 leaka77 1.44504300E-02 leaka77
  1 42 33 leaka77 8.35025000E-03 leaka77
  1 43 24 leaka77 2.08006000E-03 leaka77
  1 43 25 leaka77 3.53011000E-03 leaka77
  1 43 26 leaka77 7.80023000E-03 leaka77
  1 43 27 leaka77 6.07018000E-03 leaka77
  1 43 28 leaka77 7.89024000E-03 leaka77
  1 43 29 leaka77 1.38004000E-03 leaka77
  1 43 30 leaka77 1.59304800E-02 leaka77
  1 43 31 leaka77 2.87009000E-03 leaka77
  1 43 32 leaka77 8.38025000E-03 leaka77
  1 43 33 leaka77 7.87024000E-03 leaka77
  1 43 34 leaka77 4.29013000E-03 leaka77
  1 43 35 leaka77 2.92009000E-03 leaka77
  1 43 36 leaka77 2.60007800E-04 leaka77
  1 43 39 leaka77 1.50004500E-04 leaka77
  1 44 24 leaka77 1.61005000E-03 leaka77
  1 44 25 leaka77 5.47016000E-03 leaka77
  1 44 26 leaka77 3.21010000E-03 leaka77
  1 44 27 leaka77 2.90009000E-03 leaka77
  1 44 28 leaka77 4.42013000E-03 leaka77
  1 44 29 leaka77 3.66011000E-03 leaka77
  1 44 30 leaka77 8.74026000E-03 leaka77
  1 44 31 leaka77 8.96027000E-03 leaka77
  1 44 32 leaka77 2.11006000E-03 leaka77
  1 44 33 leaka77 5.55017000E-03 leaka77
  1 44 34 leaka77 1.21203600E-02 leaka77
  1 44 35 leaka77 1.29703900E-02 leaka77
  1 44 36 leaka77 4.51014000E-03 leaka77
  1 44 37 leaka77 1.03603100E-02 leaka77
  1 44 38 leaka77 5.85018000E-03 leaka77
  1 44 39 leaka77 4.47013000E-03 leaka77
  1 44 40 leaka77 7.30021901E-04 leaka77
  1 45 26 leaka77 6.19019000E-03 leaka77
  1 45 27 leaka77 4.20013000E-03 leaka77
  1 45 28 leaka77 8.80026401E-04 leaka77
  1 45 29 leaka77 4.74014000E-03 leaka77
  1 45 30 leaka77 2.59008000E-03 leaka77
  1 45 31 leaka77 1.54904600E-02 leaka77
  1 45 32 leaka77 2.35107100E-02 leaka77
  1 45 33 leaka77 1.45804400E-02 leaka77
  1 45 34 leaka77 2.48007000E-03 leaka77
  1 45 36 leaka77 1.41004000E-03 leaka77
  1 45 37 leaka77 4.29013000E-03 leaka77
  1 45 38 leaka77 3.23209700E-02 leaka77
  1 45 39 leaka77 1.74105200E-02 leaka77
  1 45 40 leaka77 6.40019201E-04 leaka77
  1 46 26 leaka77 2.23007000E-03 leaka77
  1 46 27 leaka77 5.77017000E-03 leaka77
  1 46 28 leaka77 2.83008000E-03 leaka77
  1 46 29 leaka77 1.16703500E-02 leaka77
  1 46 30 leaka77 1.50704500E-02 leaka77
  1 46 31 leaka77 1.05503200E-02 leaka77
  1 46 32 leaka77 9.28028000E-03 leaka77
  1 46 33 leaka77 9.40028201E-04 leaka77
  1 46 37 leaka77 5.30015900E-04 leaka77
  1 46 39 leaka77 2.10006300E-04 leaka77
  1 47 27 leaka77 5.00015000E-05 leaka77
  1 47 28 leaka77 1.46604400E-02 leaka77
  1 47 29 leaka77 1.05303200E-02 leaka77
  1 47 31 leaka77 1.80005400E-04 leaka77
  1 47 32 leaka77 4.41013000E-03 leaka77
  1 48 28 leaka77 3.46010000E-03 leaka77
  1 48 29 leaka77 6.90021000E-03 leaka77
  1 48 30 leaka77 1.60904800E-02 leaka77
  1 48 31 leaka77 5.80017000E-03 leaka77
  1 48 32 leaka77 8.80026401E-04 leaka77
  1 49 28 leaka77 8.62026000E-03 leaka77
  1 49 29 leaka77 1.85105600E-02 leaka77
  1 49 30 leaka77 6.78720400E-02 leaka77
  1 49 31 leaka77 1.01903100E-02 leaka77
  1 50 28 leaka77 1.82005000E-03 leaka77
  1 50 29 leaka77 3.22010000E-03 leaka77
  1 50 30 leaka77 1.28903900E-02 leaka77
  1 50 31 leaka77 7.65023000E-03 leaka77
  1 51 28 leaka77 7.18022000E-03 leaka77
  1 51 29 leaka77 2.33007000E-02 leaka77
  1 51 30 leaka77 2.40707200E-02 leaka77
  1 51 31 leaka77 3.54011000E-03 leaka77
  1 52 28 leaka77 9.80029401E-04 leaka77
  1 52 29 leaka77 1.98706000E-02 leaka77
  1 52 30 leaka77 9.44028000E-03 leaka77
  1 52 31 leaka77 2.25706800E-02 leaka77
  1 52 32 leaka77 1.62005000E-03 leaka77
  1 53 28 leaka77 8.70026101E-04 leaka77
  1 53 29 leaka77 6.78020000E-03 leaka77
  1 53 30 leaka77 1.39804200E-02 leaka77
  1 53 31 leaka77 8.05024000E-03 leaka77
  1 53 32 leaka77 4.00012000E-05 leaka77
  1 54 28 leaka77 2.90008700E-04 leaka77
  1 54 29 leaka77 1.65005000E-03 leaka77
  1 54 30 leaka77 1.13603400E-02 leaka77
  1 54 31 leaka77 6.32019000E-03 leaka77
  1 54 32 leaka77 2.00006000E-05 leaka77
  1 55 30 leaka77 1.11003000E-03 leaka77
  1 55 31 leaka77 3.93012000E-03 leaka77
  1 55 32 leaka77 2.96009000E-03 leaka77
  1 56 30 leaka77 2.80008400E-04 leaka77
  1 56 31 leaka77 2.50607500E-02 leaka77
  1 56 32 leaka77 6.18019000E-03 leaka77
  1 57 31 leaka77 5.00015000E-05 leaka77
  1 31 16 leaka78 3.50003500E-04 leaka78
  1 32 13 leaka78 2.80002800E-04 leaka78
  1 32 15 leaka78 5.30005300E-04 leaka78
  1 32 16 leaka78 3.33003000E-03 leaka78
  1 32 17 leaka78 6.46006000E-03 leaka78
  1 33 12 leaka78 1.21101200E-02 leaka78
  1 33 13 leaka78 9.59010000E-03 leaka78
  1 33 14 leaka78 7.33007000E-03 leaka78
  1 33 15 leaka78 2.28202300E-02 leaka78
  1 33 16 leaka78 2.73402700E-02 leaka78
  1 33 17 leaka78 1.00001000E-05 leaka78
  1 33 18 leaka78 7.79008000E-03 leaka78
  1 33 19 leaka78 9.23009000E-03 leaka78
  1 33 20 leaka78 7.67008000E-03 leaka78
  1 33 21 leaka78 3.18003000E-03 leaka78
  1 34 11 leaka78 3.33003000E-03 leaka78
  1 34 12 leaka78 1.96302000E-02 leaka78
  1 34 13 leaka78 1.73601700E-02 leaka78
  1 34 14 leaka78 1.52002000E-03 leaka78
  1 34 15 leaka78 5.39005000E-03 leaka78
  1 34 16 leaka78 1.00001000E-02 leaka78
  1 34 17 leaka78 8.18008000E-03 leaka78
  1 34 18 leaka78 4.49004000E-03 leaka78
  1 34 19 leaka78 1.22601200E-02 leaka78
  1 34 20 leaka78 4.45004000E-03 leaka78
  1 34 21 leaka78 7.14007000E-03 leaka78
  1 34 22 leaka78 1.56002000E-03 leaka78
  1 35 12 leaka78 1.05001000E-03 leaka78
  1 35 13 leaka78 6.05006000E-03 leaka78
  1 35 14 leaka78 1.35101400E-02 leaka78
  1 35 15 leaka78 1.71601700E-02 leaka78
  1 35 16 leaka78 3.33203300E-02 leaka78
  1 35 17 leaka78 4.46004500E-02 leaka78
  1 35 18 leaka78 1.07301100E-02 leaka78
  1 35 19 leaka78 4.08004000E-03 leaka78
  1 35 20 leaka78 2.21102200E-02 leaka78
  1 35 21 leaka78 8.46008000E-03 leaka78
  1 35 22 leaka78 7.61008000E-03 leaka78
  1 35 23 leaka78 6.92007000E-03 leaka78
  1 36 14 leaka78 1.00001000E-04 leaka78
  1 36 15 leaka78 1.40001000E-03 leaka78
  1 36 16 leaka78 1.11101100E-02 leaka78
  1 36 17 leaka78 2.60102600E-02 leaka78
  1 36 18 leaka78 4.90604900E-02 leaka78
  1 36 19 leaka78 5.25005000E-03 leaka78
  1 36 20 leaka78 2.81602800E-02 leaka78
  1 36 21 leaka78 8.60008600E-04 leaka78
  1 36 23 leaka78 1.10801100E-02 leaka78