# File generated by Flopy version 3.8.0 on 08/20/2024 at 11:25:58.
BEGIN options
END options

BEGIN continuous  FILEOUT  sim_equiv-tv_hist-lowell_obs.csv
  lowell  ghb  lowell
END continuous  FILEOUT  sim_equiv-tv_hist-lowell_obs.csv

