# File generated by Flopy version 3.8.0 on 08/20/2024 at 11:25:49.
BEGIN options
END options

BEGIN timing
  TDIS6  mf6-tv_hist.tdis
END timing

BEGIN models
  gwf6  mf6-tv_hist.nam  mf6-tv_hist
END models

BEGIN exchanges
END exchanges

BEGIN solutiongroup  1
  ims6  mf6-tv_hist.ims  mf6-tv_hist
END solutiongroup  1

